
**** 02/12/19 13:52:25 ****** PSpice 17.2.0 (March 2016) ****** ID# 0 ********

 ** Profile: "SCHEMATIC1-VDC"  [ E:\Circuits-I\Lab2\Exercise2-PSpiceFiles\SCHEMATIC1\VDC.sim ] 


 ****     CIRCUIT DESCRIPTION


******************************************************************************




** Creating circuit file "VDC.cir" 
** WARNING: THIS AUTOMATICALLY GENERATED FILE MAY BE OVERWRITTEN BY SUBSEQUENT SIMULATIONS

*Libraries: 
* Profile Libraries :
* Local Libraries :
* From [PSPICE NETLIST] section of C:\Users\cel8473\cdssetup\OrCAD_PSpice\17.2.0\PSpice.ini file:
.lib "nom.lib" 

*Analysis directives: 
.OPTIONS ADVCONV
.PROBE64 V(alias(*)) I(alias(*)) W(alias(*)) D(alias(*)) NOISE(alias(*)) 
.INC "..\SCHEMATIC1.net" 



**** INCLUDING SCHEMATIC1.net ****
* source EXERCISE2
R_R1         N00238 N00231 R_R1 1k TC=0,0 
.model        R_R1 RES R=1 DEV=10% TC1=0 TC2=0
R_R2         N00238 A R_R2 1k TC=0,0 
.model        R_R2 RES R=1 DEV=10% TC1=0 TC2=0
R_R3         A N00231 R_R3 1k TC=0,0 
.model        R_R3 RES R=1 DEV=10% TC1=0 TC2=0
R_R4         0 B R_R4 1k TC=0,0 
.model        R_R4 RES R=1 DEV=10% TC1=0 TC2=0
R_R5         B N00197 R_R5 1k TC=0,0 
.model        R_R5 RES R=1 DEV=10% TC1=0 TC2=0
R_R6         B A R_R6 10k TC=0,0 
.model        R_R6 RES R=1 DEV=10% TC1=0 TC2=0
R_RL         N00197 N00231 R_RL 1k TC=0,0 
.model        R_RL RES R=1 DEV=10% TC1=0 TC2=0
V_V1         N00238 0 12Vdc

**** RESUMING VDC.cir ****
.END

**** 02/12/19 13:52:25 ****** PSpice 17.2.0 (March 2016) ****** ID# 0 ********

 ** Profile: "SCHEMATIC1-VDC"  [ E:\Circuits-I\Lab2\Exercise2-PSpiceFiles\SCHEMATIC1\VDC.sim ] 


 ****     Resistor MODEL PARAMETERS


******************************************************************************




               R_R1            R_R2            R_R3            R_R4            
           R    1               1               1               1            


               R_R5            R_R6            R_RL            
           R    1               1               1            


**** 02/12/19 13:52:25 ****** PSpice 17.2.0 (March 2016) ****** ID# 0 ********

 ** Profile: "SCHEMATIC1-VDC"  [ E:\Circuits-I\Lab2\Exercise2-PSpiceFiles\SCHEMATIC1\VDC.sim ] 


 ****     SMALL SIGNAL BIAS SOLUTION       TEMPERATURE =   27.000 DEG C


******************************************************************************



 NODE   VOLTAGE     NODE   VOLTAGE     NODE   VOLTAGE     NODE   VOLTAGE


(    A)   10.5370  (    B)    3.7073  (N00197)    6.7317 (N00231)    9.7561     

(N00238)   12.0000 




    VOLTAGE SOURCE CURRENTS
    NAME         CURRENT

    V_V1        -3.707E-03

    TOTAL POWER DISSIPATION   4.45E-02  WATTS



          JOB CONCLUDED

**** 02/12/19 13:52:25 ****** PSpice 17.2.0 (March 2016) ****** ID# 0 ********

 ** Profile: "SCHEMATIC1-VDC"  [ E:\Circuits-I\Lab2\Exercise2-PSpiceFiles\SCHEMATIC1\VDC.sim ] 


 ****     JOB STATISTICS SUMMARY


******************************************************************************



  Total job time (using Solver 1)   =         .08
