
**** 04/02/19 15:18:16 ****** PSpice 17.2.0 (March 2016) ****** ID# 0 ********

 ** Profile: "SCHEMATIC1-Monte"  [ E:\Circuits-I\Lab4\Lab4-PSpiceFiles\SCHEMATIC1\Monte.sim ] 


 ****     CIRCUIT DESCRIPTION


******************************************************************************




** Creating circuit file "Monte.cir" 
** WARNING: THIS AUTOMATICALLY GENERATED FILE MAY BE OVERWRITTEN BY SUBSEQUENT SIMULATIONS

*Libraries: 
* Profile Libraries :
* Local Libraries :
* From [PSPICE NETLIST] section of C:\Users\cel8473\cdssetup\OrCAD_PSpice\17.2.0\PSpice.ini file:
.lib "nom.lib" 

*Analysis directives: 
.TRAN  0 3ms 0 
.MC 100 TRAN V([VOUTINV]) MAX OUTPUT ALL SEED=256 
.OPTIONS ADVCONV
.PROBE64 V(alias(*)) I(alias(*)) W(alias(*)) D(alias(*)) NOISE(alias(*)) 
.INC "..\SCHEMATIC1.net" 



**** INCLUDING SCHEMATIC1.net ****
* source LAB4
V_V1         POSSUPPLY 0 {Vsupply}
V_V2         0 NEGSUPPLY {Vsupply}
X_U1         N00878 VINNON POSSUPPLY NEGSUPPLY VININV uA741
R_Rin         0 VINNON R_Rin {Rin} TC=0,0 
.model        R_Rin RES R=1 DEV=10% TC1=0 TC2=0
R_RfNonInvert         VINNON VININV R_RfNonInvert {RfNoninverting} TC=0,0 
.model        R_RfNonInvert RES R=1 DEV=10% TC1=0 TC2=0
R_Rin1         VININV N00580 R_Rin1 {Rin} TC=0,0 
.model        R_Rin1 RES R=1 DEV=10% TC1=0 TC2=0
X_U2         0 N00580 POSSUPPLY NEGSUPPLY VOUTINV uA741
R_RfInvert         N00580 VOUTINV R_RfInvert {RfInverting} TC=0,0 
.model        R_RfInvert RES R=1 DEV=10% TC1=0 TC2=0
V_V4         N00878 0  
+SIN 0 0.5 {Freq} 0 0 0
.PARAM  vsupply=20 freq=1k rfinverting=4k rfnoninverting=3k rin=1k

**** RESUMING Monte.cir ****
.END

**** 04/02/19 15:18:16 ****** PSpice 17.2.0 (March 2016) ****** ID# 0 ********

 ** Profile: "SCHEMATIC1-Monte"  [ E:\Circuits-I\Lab4\Lab4-PSpiceFiles\SCHEMATIC1\Monte.sim ] 


 ****     Diode MODEL PARAMETERS


******************************************************************************




               X_U1.dx         X_U1.dy         X_U2.dx         X_U2.dy         
          IS  800.000000E-18  800.000000E-18  800.000000E-18  800.000000E-18 
          RS    1               1.000000E-03    1               1.000000E-03 
         CJO                   10.000000E-12                   10.000000E-12 


**** 04/02/19 15:18:16 ****** PSpice 17.2.0 (March 2016) ****** ID# 0 ********

 ** Profile: "SCHEMATIC1-Monte"  [ E:\Circuits-I\Lab4\Lab4-PSpiceFiles\SCHEMATIC1\Monte.sim ] 


 ****     BJT MODEL PARAMETERS


******************************************************************************




               X_U1.qx         X_U2.qx         
               NPN             NPN             
       LEVEL    1               1            
          IS  800.000000E-18  800.000000E-18 
          BF   93.75           93.75         
          NF    1               1            
          BR    1               1            
          NR    1               1            
         ISS    0               0            
          RE    0               0            
          RC    0               0            
         CJE    0               0            
         VJE     .75             .75         
         CJC    0               0            
         VJC     .75             .75         
         MJC     .33             .33         
        XCJC    1               1            
         CJS    0               0            
         VJS     .75             .75         
          KF    0               0            
          AF    1               1            
          CN    2.42            2.42         
           D     .87             .87         


**** 04/02/19 15:18:16 ****** PSpice 17.2.0 (March 2016) ****** ID# 0 ********

 ** Profile: "SCHEMATIC1-Monte"  [ E:\Circuits-I\Lab4\Lab4-PSpiceFiles\SCHEMATIC1\Monte.sim ] 


 ****     Resistor MODEL PARAMETERS


******************************************************************************




               R_Rin           R_RfNonInvert   R_Rin1          R_RfInvert      
           R    1               1               1               1            


**** 04/02/19 15:18:16 ****** PSpice 17.2.0 (March 2016) ****** ID# 0 ********

 ** Profile: "SCHEMATIC1-Monte"  [ E:\Circuits-I\Lab4\Lab4-PSpiceFiles\SCHEMATIC1\Monte.sim ] 


 ****     INITIAL TRANSIENT SOLUTION       TEMPERATURE =   27.000 DEG C

                      MONTE CARLO NOMINAL

******************************************************************************



 NODE   VOLTAGE     NODE   VOLTAGE     NODE   VOLTAGE     NODE   VOLTAGE


(N00580) 19.26E-06 (N00878)    0.0000 (VININV) 316.3E-06 (VINNON) 19.25E-06     

(X_U1.6)-35.77E-09 (X_U1.7) 336.1E-06 (X_U1.8) 336.1E-06 (X_U1.9)    0.0000     

(X_U2.6) 82.84E-09 (X_U2.7)-860.6E-06 (X_U2.8)-860.6E-06 (X_U2.9)    0.0000     

(VOUTINV)-849.8E-06                   (X_U1.10)    -.6077                       

(X_U1.11)   19.9600                   (X_U1.12)   19.9600                       

(X_U1.13)    -.5938                   (X_U1.14)    -.5938                       

(X_U1.53)   19.0000                   (X_U1.54)  -19.0000                       

(X_U1.90) 396.0E-06                   (X_U1.91)   40.0000                       

(X_U1.92)  -40.0000                   (X_U1.99)    0.0000                       

(X_U2.10)    -.6077                   (X_U2.11)   19.9600                       

(X_U2.12)   19.9600                   (X_U2.13)    -.5938                       

(X_U2.14)    -.5938                   (X_U2.53)   19.0000                       

(X_U2.54)  -19.0000                   (X_U2.90)-217.3E-06                       

(X_U2.91)   40.0000                   (X_U2.92)  -40.0000                       

(X_U2.99)    0.0000                   (NEGSUPPLY)  -20.0000                     

(POSSUPPLY)   20.0000                 




    VOLTAGE SOURCE CURRENTS
    NAME         CURRENT

    V_V1        -4.435E-03
    V_V2        -4.436E-03
    V_V4        -7.972E-08
    X_U1.vb     -3.577E-13
    X_U1.vc      1.900E-11
    X_U1.ve      2.160E-11
    X_U1.vlim    3.960E-07
    X_U1.vlp    -4.000E-11
    X_U1.vln    -4.000E-11
    X_U2.vb      8.284E-13
    X_U2.vc      1.900E-11
    X_U2.ve      2.160E-11
    X_U2.vlim   -2.173E-07
    X_U2.vlp    -4.000E-11
    X_U2.vln    -4.000E-11

    TOTAL POWER DISSIPATION   1.77E-01  WATTS


**** 04/02/19 15:18:16 ****** PSpice 17.2.0 (March 2016) ****** ID# 0 ********

 ** Profile: "SCHEMATIC1-Monte"  [ E:\Circuits-I\Lab4\Lab4-PSpiceFiles\SCHEMATIC1\Monte.sim ] 


 ****     INITIAL TRANSIENT SOLUTION       TEMPERATURE =   27.000 DEG C

                      MONTE CARLO PASS 2

******************************************************************************



 NODE   VOLTAGE     NODE   VOLTAGE     NODE   VOLTAGE     NODE   VOLTAGE


(N00580) 19.26E-06 (N00878)    0.0000 (VININV) 322.3E-06 (VINNON) 19.25E-06     

(X_U1.6)-36.35E-09 (X_U1.7) 342.1E-06 (X_U1.8) 342.1E-06 (X_U1.9)    0.0000     

(X_U2.6) 90.19E-09 (X_U2.7)-938.4E-06 (X_U2.8)-938.4E-06 (X_U2.9)    0.0000     

(VOUTINV)-927.4E-06                   (X_U1.10)    -.6077                       

(X_U1.11)   19.9600                   (X_U1.12)   19.9600                       

(X_U1.13)    -.5938                   (X_U1.14)    -.5938                       

(X_U1.53)   19.0000                   (X_U1.54)  -19.0000                       

(X_U1.90) 397.3E-06                   (X_U1.91)   40.0000                       

(X_U1.92)  -40.0000                   (X_U1.99)    0.0000                       

(X_U2.10)    -.6077                   (X_U2.11)   19.9600                       

(X_U2.12)   19.9600                   (X_U2.13)    -.5938                       

(X_U2.14)    -.5938                   (X_U2.53)   19.0000                       

(X_U2.54)  -19.0000                   (X_U2.90)-219.8E-06                       

(X_U2.91)   40.0000                   (X_U2.92)  -40.0000                       

(X_U2.99)    0.0000                   (NEGSUPPLY)  -20.0000                     

(POSSUPPLY)   20.0000                 




    VOLTAGE SOURCE CURRENTS
    NAME         CURRENT

    V_V1        -4.435E-03
    V_V2        -4.436E-03
    V_V4        -7.972E-08
    X_U1.vb     -3.635E-13
    X_U1.vc      1.900E-11
    X_U1.ve      2.160E-11
    X_U1.vlim    3.973E-07
    X_U1.vlp    -4.000E-11
    X_U1.vln    -4.000E-11
    X_U2.vb      9.019E-13
    X_U2.vc      1.900E-11
    X_U2.ve      2.160E-11
    X_U2.vlim   -2.198E-07
    X_U2.vlp    -4.000E-11
    X_U2.vln    -4.000E-11

    TOTAL POWER DISSIPATION   1.77E-01  WATTS


**** 04/02/19 15:18:16 ****** PSpice 17.2.0 (March 2016) ****** ID# 0 ********

 ** Profile: "SCHEMATIC1-Monte"  [ E:\Circuits-I\Lab4\Lab4-PSpiceFiles\SCHEMATIC1\Monte.sim ] 


 ****     INITIAL TRANSIENT SOLUTION       TEMPERATURE =   27.000 DEG C

                      MONTE CARLO PASS 3

******************************************************************************



 NODE   VOLTAGE     NODE   VOLTAGE     NODE   VOLTAGE     NODE   VOLTAGE


(N00580) 19.25E-06 (N00878)    0.0000 (VININV) 296.5E-06 (VINNON) 19.25E-06     

(X_U1.6)-33.27E-09 (X_U1.7) 314.1E-06 (X_U1.8) 314.1E-06 (X_U1.9)    0.0000     

(X_U2.6) 60.81E-09 (X_U2.7)-631.3E-06 (X_U2.8)-631.3E-06 (X_U2.9)    0.0000     

(VOUTINV)-622.7E-06                   (X_U1.10)    -.6077                       

(X_U1.11)   19.9600                   (X_U1.12)   19.9600                       

(X_U1.13)    -.5938                   (X_U1.14)    -.5938                       

(X_U1.53)   19.0000                   (X_U1.54)  -19.0000                       

(X_U1.90) 352.0E-06                   (X_U1.91)   40.0000                       

(X_U1.92)  -40.0000                   (X_U1.99)    0.0000                       

(X_U2.10)    -.6077                   (X_U2.11)   19.9600                       

(X_U2.12)   19.9600                   (X_U2.13)    -.5938                       

(X_U2.14)    -.5938                   (X_U2.53)   19.0000                       

(X_U2.54)  -19.0000                   (X_U2.90)-172.8E-06                       

(X_U2.91)   40.0000                   (X_U2.92)  -40.0000                       

(X_U2.99)    0.0000                   (NEGSUPPLY)  -20.0000                     

(POSSUPPLY)   20.0000                 




    VOLTAGE SOURCE CURRENTS
    NAME         CURRENT

    V_V1        -4.435E-03
    V_V2        -4.436E-03
    V_V4        -7.972E-08
    X_U1.vb     -3.327E-13
    X_U1.vc      1.900E-11
    X_U1.ve      2.160E-11
    X_U1.vlim    3.520E-07
    X_U1.vlp    -4.000E-11
    X_U1.vln    -4.000E-11
    X_U2.vb      6.081E-13
    X_U2.vc      1.900E-11
    X_U2.ve      2.160E-11
    X_U2.vlim   -1.728E-07
    X_U2.vlp    -4.000E-11
    X_U2.vln    -4.000E-11

    TOTAL POWER DISSIPATION   1.77E-01  WATTS


**** 04/02/19 15:18:16 ****** PSpice 17.2.0 (March 2016) ****** ID# 0 ********

 ** Profile: "SCHEMATIC1-Monte"  [ E:\Circuits-I\Lab4\Lab4-PSpiceFiles\SCHEMATIC1\Monte.sim ] 


 ****     INITIAL TRANSIENT SOLUTION       TEMPERATURE =   27.000 DEG C

                      MONTE CARLO PASS 4

******************************************************************************



 NODE   VOLTAGE     NODE   VOLTAGE     NODE   VOLTAGE     NODE   VOLTAGE


(N00580) 19.26E-06 (N00878)    0.0000 (VININV) 336.5E-06 (VINNON) 19.25E-06     

(X_U1.6)-37.62E-09 (X_U1.7) 356.1E-06 (X_U1.8) 356.1E-06 (X_U1.9)    0.0000     

(X_U2.6) 79.05E-09 (X_U2.7)-820.8E-06 (X_U2.8)-820.8E-06 (X_U2.9)    0.0000     

(VOUTINV)-810.1E-06                   (X_U1.10)    -.6077                       

(X_U1.11)   19.9600                   (X_U1.12)   19.9600                       

(X_U1.13)    -.5938                   (X_U1.14)    -.5938                       

(X_U1.53)   19.0000                   (X_U1.54)  -19.0000                       

(X_U1.90) 392.6E-06                   (X_U1.91)   40.0000                       

(X_U1.92)  -40.0000                   (X_U1.99)    0.0000                       

(X_U2.10)    -.6077                   (X_U2.11)   19.9600                       

(X_U2.12)   19.9600                   (X_U2.13)    -.5938                       

(X_U2.14)    -.5938                   (X_U2.53)   19.0000                       

(X_U2.54)  -19.0000                   (X_U2.90)-213.0E-06                       

(X_U2.91)   40.0000                   (X_U2.92)  -40.0000                       

(X_U2.99)    0.0000                   (NEGSUPPLY)  -20.0000                     

(POSSUPPLY)   20.0000                 




    VOLTAGE SOURCE CURRENTS
    NAME         CURRENT

    V_V1        -4.435E-03
    V_V2        -4.436E-03
    V_V4        -7.972E-08
    X_U1.vb     -3.762E-13
    X_U1.vc      1.900E-11
    X_U1.ve      2.160E-11
    X_U1.vlim    3.926E-07
    X_U1.vlp    -4.000E-11
    X_U1.vln    -4.000E-11
    X_U2.vb      7.905E-13
    X_U2.vc      1.900E-11
    X_U2.ve      2.160E-11
    X_U2.vlim   -2.130E-07
    X_U2.vlp    -4.000E-11
    X_U2.vln    -4.000E-11

    TOTAL POWER DISSIPATION   1.77E-01  WATTS


**** 04/02/19 15:18:16 ****** PSpice 17.2.0 (March 2016) ****** ID# 0 ********

 ** Profile: "SCHEMATIC1-Monte"  [ E:\Circuits-I\Lab4\Lab4-PSpiceFiles\SCHEMATIC1\Monte.sim ] 


 ****     INITIAL TRANSIENT SOLUTION       TEMPERATURE =   27.000 DEG C

                      MONTE CARLO PASS 5

******************************************************************************



 NODE   VOLTAGE     NODE   VOLTAGE     NODE   VOLTAGE     NODE   VOLTAGE


(N00580) 19.26E-06 (N00878)    0.0000 (VININV) 323.7E-06 (VINNON) 19.25E-06     

(X_U1.6)-36.89E-09 (X_U1.7) 345.0E-06 (X_U1.8) 345.0E-06 (X_U1.9)    0.0000     

(X_U2.6) 90.05E-09 (X_U2.7)-934.2E-06 (X_U2.8)-934.2E-06 (X_U2.9)    0.0000     

(VOUTINV)-922.0E-06                   (X_U1.10)    -.6077                       

(X_U1.11)   19.9600                   (X_U1.12)   19.9600                       

(X_U1.13)    -.5938                   (X_U1.14)    -.5938                       

(X_U1.53)   19.0000                   (X_U1.54)  -19.0000                       

(X_U1.90) 425.5E-06                   (X_U1.91)   40.0000                       

(X_U1.92)  -40.0000                   (X_U1.99)    0.0000                       

(X_U2.10)    -.6077                   (X_U2.11)   19.9600                       

(X_U2.12)   19.9600                   (X_U2.13)    -.5938                       

(X_U2.14)    -.5938                   (X_U2.53)   19.0000                       

(X_U2.54)  -19.0000                   (X_U2.90)-245.2E-06                       

(X_U2.91)   40.0000                   (X_U2.92)  -40.0000                       

(X_U2.99)    0.0000                   (NEGSUPPLY)  -20.0000                     

(POSSUPPLY)   20.0000                 




    VOLTAGE SOURCE CURRENTS
    NAME         CURRENT

    V_V1        -4.435E-03
    V_V2        -4.436E-03
    V_V4        -7.972E-08
    X_U1.vb     -3.689E-13
    X_U1.vc      1.900E-11
    X_U1.ve      2.160E-11
    X_U1.vlim    4.255E-07
    X_U1.vlp    -4.000E-11
    X_U1.vln    -4.000E-11
    X_U2.vb      9.005E-13
    X_U2.vc      1.900E-11
    X_U2.ve      2.160E-11
    X_U2.vlim   -2.452E-07
    X_U2.vlp    -4.000E-11
    X_U2.vln    -4.000E-11

    TOTAL POWER DISSIPATION   1.77E-01  WATTS


**** 04/02/19 15:18:16 ****** PSpice 17.2.0 (March 2016) ****** ID# 0 ********

 ** Profile: "SCHEMATIC1-Monte"  [ E:\Circuits-I\Lab4\Lab4-PSpiceFiles\SCHEMATIC1\Monte.sim ] 


 ****     INITIAL TRANSIENT SOLUTION       TEMPERATURE =   27.000 DEG C

                      MONTE CARLO PASS 6

******************************************************************************



 NODE   VOLTAGE     NODE   VOLTAGE     NODE   VOLTAGE     NODE   VOLTAGE


(N00580) 19.26E-06 (N00878)    0.0000 (VININV) 308.5E-06 (VINNON) 19.25E-06     

(X_U1.6)-35.32E-09 (X_U1.7) 329.3E-06 (X_U1.8) 329.3E-06 (X_U1.9)    0.0000     

(X_U2.6) 88.13E-09 (X_U2.7)-914.9E-06 (X_U2.8)-914.9E-06 (X_U2.9)    0.0000     

(VOUTINV)-903.1E-06                   (X_U1.10)    -.6077                       

(X_U1.11)   19.9600                   (X_U1.12)   19.9600                       

(X_U1.13)    -.5938                   (X_U1.14)    -.5938                       

(X_U1.53)   19.0000                   (X_U1.54)  -19.0000                       

(X_U1.90) 416.3E-06                   (X_U1.91)   40.0000                       

(X_U1.92)  -40.0000                   (X_U1.99)    0.0000                       

(X_U2.10)    -.6077                   (X_U2.11)   19.9600                       

(X_U2.12)   19.9600                   (X_U2.13)    -.5938                       

(X_U2.14)    -.5938                   (X_U2.53)   19.0000                       

(X_U2.54)  -19.0000                   (X_U2.90)-235.7E-06                       

(X_U2.91)   40.0000                   (X_U2.92)  -40.0000                       

(X_U2.99)    0.0000                   (NEGSUPPLY)  -20.0000                     

(POSSUPPLY)   20.0000                 




    VOLTAGE SOURCE CURRENTS
    NAME         CURRENT

    V_V1        -4.435E-03
    V_V2        -4.436E-03
    V_V4        -7.972E-08
    X_U1.vb     -3.532E-13
    X_U1.vc      1.900E-11
    X_U1.ve      2.160E-11
    X_U1.vlim    4.163E-07
    X_U1.vlp    -4.000E-11
    X_U1.vln    -4.000E-11
    X_U2.vb      8.813E-13
    X_U2.vc      1.900E-11
    X_U2.ve      2.160E-11
    X_U2.vlim   -2.357E-07
    X_U2.vlp    -4.000E-11
    X_U2.vln    -4.000E-11

    TOTAL POWER DISSIPATION   1.77E-01  WATTS


**** 04/02/19 15:18:16 ****** PSpice 17.2.0 (March 2016) ****** ID# 0 ********

 ** Profile: "SCHEMATIC1-Monte"  [ E:\Circuits-I\Lab4\Lab4-PSpiceFiles\SCHEMATIC1\Monte.sim ] 


 ****     INITIAL TRANSIENT SOLUTION       TEMPERATURE =   27.000 DEG C

                      MONTE CARLO PASS 7

******************************************************************************



 NODE   VOLTAGE     NODE   VOLTAGE     NODE   VOLTAGE     NODE   VOLTAGE


(N00580) 19.25E-06 (N00878)    0.0000 (VININV) 291.7E-06 (VINNON) 19.25E-06     

(X_U1.6)-32.81E-09 (X_U1.7) 309.3E-06 (X_U1.8) 309.3E-06 (X_U1.9)    0.0000     

(X_U2.6) 65.19E-09 (X_U2.7)-677.8E-06 (X_U2.8)-677.8E-06 (X_U2.9)    0.0000     

(VOUTINV)-669.1E-06                   (X_U1.10)    -.6077                       

(X_U1.11)   19.9600                   (X_U1.12)   19.9600                       

(X_U1.13)    -.5938                   (X_U1.14)    -.5938                       

(X_U1.53)   19.0000                   (X_U1.54)  -19.0000                       

(X_U1.90) 351.3E-06                   (X_U1.91)   40.0000                       

(X_U1.92)  -40.0000                   (X_U1.99)    0.0000                       

(X_U2.10)    -.6077                   (X_U2.11)   19.9600                       

(X_U2.12)   19.9600                   (X_U2.13)    -.5938                       

(X_U2.14)    -.5938                   (X_U2.53)   19.0000                       

(X_U2.54)  -19.0000                   (X_U2.90)-173.8E-06                       

(X_U2.91)   40.0000                   (X_U2.92)  -40.0000                       

(X_U2.99)    0.0000                   (NEGSUPPLY)  -20.0000                     

(POSSUPPLY)   20.0000                 




    VOLTAGE SOURCE CURRENTS
    NAME         CURRENT

    V_V1        -4.435E-03
    V_V2        -4.436E-03
    V_V4        -7.972E-08
    X_U1.vb     -3.281E-13
    X_U1.vc      1.900E-11
    X_U1.ve      2.160E-11
    X_U1.vlim    3.513E-07
    X_U1.vlp    -4.000E-11
    X_U1.vln    -4.000E-11
    X_U2.vb      6.519E-13
    X_U2.vc      1.900E-11
    X_U2.ve      2.160E-11
    X_U2.vlim   -1.738E-07
    X_U2.vlp    -4.000E-11
    X_U2.vln    -4.000E-11

    TOTAL POWER DISSIPATION   1.77E-01  WATTS


**** 04/02/19 15:18:16 ****** PSpice 17.2.0 (March 2016) ****** ID# 0 ********

 ** Profile: "SCHEMATIC1-Monte"  [ E:\Circuits-I\Lab4\Lab4-PSpiceFiles\SCHEMATIC1\Monte.sim ] 


 ****     INITIAL TRANSIENT SOLUTION       TEMPERATURE =   27.000 DEG C

                      MONTE CARLO PASS 8

******************************************************************************



 NODE   VOLTAGE     NODE   VOLTAGE     NODE   VOLTAGE     NODE   VOLTAGE


(N00580) 19.26E-06 (N00878)    0.0000 (VININV) 331.7E-06 (VINNON) 19.25E-06     

(X_U1.6)-37.46E-09 (X_U1.7) 352.3E-06 (X_U1.8) 352.3E-06 (X_U1.9)    0.0000     

(X_U2.6) 89.77E-09 (X_U2.7)-932.4E-06 (X_U2.8)-932.4E-06 (X_U2.9)    0.0000     

(VOUTINV)-920.7E-06                   (X_U1.10)    -.6077                       

(X_U1.11)   19.9600                   (X_U1.12)   19.9600                       

(X_U1.13)    -.5938                   (X_U1.14)    -.5938                       

(X_U1.53)   19.0000                   (X_U1.54)  -19.0000                       

(X_U1.90) 412.3E-06                   (X_U1.91)   40.0000                       

(X_U1.92)  -40.0000                   (X_U1.99)    0.0000                       

(X_U2.10)    -.6077                   (X_U2.11)   19.9600                       

(X_U2.12)   19.9600                   (X_U2.13)    -.5938                       

(X_U2.14)    -.5938                   (X_U2.53)   19.0000                       

(X_U2.54)  -19.0000                   (X_U2.90)-233.9E-06                       

(X_U2.91)   40.0000                   (X_U2.92)  -40.0000                       

(X_U2.99)    0.0000                   (NEGSUPPLY)  -20.0000                     

(POSSUPPLY)   20.0000                 




    VOLTAGE SOURCE CURRENTS
    NAME         CURRENT

    V_V1        -4.435E-03
    V_V2        -4.436E-03
    V_V4        -7.972E-08
    X_U1.vb     -3.746E-13
    X_U1.vc      1.900E-11
    X_U1.ve      2.160E-11
    X_U1.vlim    4.123E-07
    X_U1.vlp    -4.000E-11
    X_U1.vln    -4.000E-11
    X_U2.vb      8.977E-13
    X_U2.vc      1.900E-11
    X_U2.ve      2.160E-11
    X_U2.vlim   -2.339E-07
    X_U2.vlp    -4.000E-11
    X_U2.vln    -4.000E-11

    TOTAL POWER DISSIPATION   1.77E-01  WATTS


**** 04/02/19 15:18:16 ****** PSpice 17.2.0 (March 2016) ****** ID# 0 ********

 ** Profile: "SCHEMATIC1-Monte"  [ E:\Circuits-I\Lab4\Lab4-PSpiceFiles\SCHEMATIC1\Monte.sim ] 


 ****     INITIAL TRANSIENT SOLUTION       TEMPERATURE =   27.000 DEG C

                      MONTE CARLO PASS 9

******************************************************************************



 NODE   VOLTAGE     NODE   VOLTAGE     NODE   VOLTAGE     NODE   VOLTAGE


(N00580) 19.26E-06 (N00878)    0.0000 (VININV) 322.7E-06 (VINNON) 19.25E-06     

(X_U1.6)-36.92E-09 (X_U1.7) 344.4E-06 (X_U1.8) 344.4E-06 (X_U1.9)    0.0000     

(X_U2.6) 105.7E-09 (X_U2.7)    -.0011 (X_U2.8)    -.0011 (X_U2.9)    0.0000     

(VOUTINV)    -.0011                   (X_U1.10)    -.6077                       

(X_U1.11)   19.9600                   (X_U1.12)   19.9600                       

(X_U1.13)    -.5938                   (X_U1.14)    -.5938                       

(X_U1.53)   19.0000                   (X_U1.54)  -19.0000                       

(X_U1.90) 434.7E-06                   (X_U1.91)   40.0000                       

(X_U1.92)  -40.0000                   (X_U1.99)    0.0000                       

(X_U2.10)    -.6077                   (X_U2.11)   19.9600                       

(X_U2.12)   19.9600                   (X_U2.13)    -.5938                       

(X_U2.14)    -.5938                   (X_U2.53)   19.0000                       

(X_U2.54)  -19.0000                   (X_U2.90)-256.2E-06                       

(X_U2.91)   40.0000                   (X_U2.92)  -40.0000                       

(X_U2.99)    0.0000                   (NEGSUPPLY)  -20.0000                     

(POSSUPPLY)   20.0000                 




    VOLTAGE SOURCE CURRENTS
    NAME         CURRENT

    V_V1        -4.435E-03
    V_V2        -4.436E-03
    V_V4        -7.972E-08
    X_U1.vb     -3.692E-13
    X_U1.vc      1.900E-11
    X_U1.ve      2.160E-11
    X_U1.vlim    4.347E-07
    X_U1.vlp    -4.000E-11
    X_U1.vln    -4.000E-11
    X_U2.vb      1.057E-12
    X_U2.vc      1.900E-11
    X_U2.ve      2.160E-11
    X_U2.vlim   -2.562E-07
    X_U2.vlp    -4.000E-11
    X_U2.vln    -4.000E-11

    TOTAL POWER DISSIPATION   1.77E-01  WATTS


**** 04/02/19 15:18:16 ****** PSpice 17.2.0 (March 2016) ****** ID# 0 ********

 ** Profile: "SCHEMATIC1-Monte"  [ E:\Circuits-I\Lab4\Lab4-PSpiceFiles\SCHEMATIC1\Monte.sim ] 


 ****     INITIAL TRANSIENT SOLUTION       TEMPERATURE =   27.000 DEG C

                      MONTE CARLO PASS 10

******************************************************************************



 NODE   VOLTAGE     NODE   VOLTAGE     NODE   VOLTAGE     NODE   VOLTAGE


(N00580) 19.25E-06 (N00878)    0.0000 (VININV) 288.6E-06 (VINNON) 19.25E-06     

(X_U1.6)-32.58E-09 (X_U1.7) 306.4E-06 (X_U1.8) 306.4E-06 (X_U1.9)    0.0000     

(X_U2.6) 65.11E-09 (X_U2.7)-676.5E-06 (X_U2.8)-676.5E-06 (X_U2.9)    0.0000     

(VOUTINV)-667.6E-06                   (X_U1.10)    -.6077                       

(X_U1.11)   19.9600                   (X_U1.12)   19.9600                       

(X_U1.13)    -.5938                   (X_U1.14)    -.5938                       

(X_U1.53)   19.0000                   (X_U1.54)  -19.0000                       

(X_U1.90) 355.8E-06                   (X_U1.91)   40.0000                       

(X_U1.92)  -40.0000                   (X_U1.99)    0.0000                       

(X_U2.10)    -.6077                   (X_U2.11)   19.9600                       

(X_U2.12)   19.9600                   (X_U2.13)    -.5938                       

(X_U2.14)    -.5938                   (X_U2.53)   19.0000                       

(X_U2.54)  -19.0000                   (X_U2.90)-178.5E-06                       

(X_U2.91)   40.0000                   (X_U2.92)  -40.0000                       

(X_U2.99)    0.0000                   (NEGSUPPLY)  -20.0000                     

(POSSUPPLY)   20.0000                 




    VOLTAGE SOURCE CURRENTS
    NAME         CURRENT

    V_V1        -4.435E-03
    V_V2        -4.436E-03
    V_V4        -7.972E-08
    X_U1.vb     -3.258E-13
    X_U1.vc      1.900E-11
    X_U1.ve      2.160E-11
    X_U1.vlim    3.558E-07
    X_U1.vlp    -4.000E-11
    X_U1.vln    -4.000E-11
    X_U2.vb      6.511E-13
    X_U2.vc      1.900E-11
    X_U2.ve      2.160E-11
    X_U2.vlim   -1.785E-07
    X_U2.vlp    -4.000E-11
    X_U2.vln    -4.000E-11

    TOTAL POWER DISSIPATION   1.77E-01  WATTS


**** 04/02/19 15:18:16 ****** PSpice 17.2.0 (March 2016) ****** ID# 0 ********

 ** Profile: "SCHEMATIC1-Monte"  [ E:\Circuits-I\Lab4\Lab4-PSpiceFiles\SCHEMATIC1\Monte.sim ] 


 ****     INITIAL TRANSIENT SOLUTION       TEMPERATURE =   27.000 DEG C

                      MONTE CARLO PASS 11

******************************************************************************



 NODE   VOLTAGE     NODE   VOLTAGE     NODE   VOLTAGE     NODE   VOLTAGE


(N00580) 19.26E-06 (N00878)    0.0000 (VININV) 301.6E-06 (VINNON) 19.25E-06     

(X_U1.6)-33.89E-09 (X_U1.7) 319.7E-06 (X_U1.8) 319.7E-06 (X_U1.9)    0.0000     

(X_U2.6) 68.81E-09 (X_U2.7)-715.3E-06 (X_U2.8)-715.3E-06 (X_U2.9)    0.0000     

(VOUTINV)-706.2E-06                   (X_U1.10)    -.6077                       

(X_U1.11)   19.9600                   (X_U1.12)   19.9600                       

(X_U1.13)    -.5938                   (X_U1.14)    -.5938                       

(X_U1.53)   19.0000                   (X_U1.54)  -19.0000                       

(X_U1.90) 361.7E-06                   (X_U1.91)   40.0000                       

(X_U1.92)  -40.0000                   (X_U1.99)    0.0000                       

(X_U2.10)    -.6077                   (X_U2.11)   19.9600                       

(X_U2.12)   19.9600                   (X_U2.13)    -.5938                       

(X_U2.14)    -.5938                   (X_U2.53)   19.0000                       

(X_U2.54)  -19.0000                   (X_U2.90)-182.7E-06                       

(X_U2.91)   40.0000                   (X_U2.92)  -40.0000                       

(X_U2.99)    0.0000                   (NEGSUPPLY)  -20.0000                     

(POSSUPPLY)   20.0000                 




    VOLTAGE SOURCE CURRENTS
    NAME         CURRENT

    V_V1        -4.435E-03
    V_V2        -4.436E-03
    V_V4        -7.972E-08
    X_U1.vb     -3.389E-13
    X_U1.vc      1.900E-11
    X_U1.ve      2.160E-11
    X_U1.vlim    3.617E-07
    X_U1.vlp    -4.000E-11
    X_U1.vln    -4.000E-11
    X_U2.vb      6.881E-13
    X_U2.vc      1.900E-11
    X_U2.ve      2.160E-11
    X_U2.vlim   -1.827E-07
    X_U2.vlp    -4.000E-11
    X_U2.vln    -4.000E-11

    TOTAL POWER DISSIPATION   1.77E-01  WATTS


**** 04/02/19 15:18:16 ****** PSpice 17.2.0 (March 2016) ****** ID# 0 ********

 ** Profile: "SCHEMATIC1-Monte"  [ E:\Circuits-I\Lab4\Lab4-PSpiceFiles\SCHEMATIC1\Monte.sim ] 


 ****     INITIAL TRANSIENT SOLUTION       TEMPERATURE =   27.000 DEG C

                      MONTE CARLO PASS 12

******************************************************************************



 NODE   VOLTAGE     NODE   VOLTAGE     NODE   VOLTAGE     NODE   VOLTAGE


(N00580) 19.26E-06 (N00878)    0.0000 (VININV) 327.1E-06 (VINNON) 19.25E-06     

(X_U1.6)-36.69E-09 (X_U1.7) 346.5E-06 (X_U1.8) 346.5E-06 (X_U1.9)    0.0000     

(X_U2.6) 83.42E-09 (X_U2.7)-867.5E-06 (X_U2.8)-867.5E-06 (X_U2.9)    0.0000     

(VOUTINV)-857.0E-06                   (X_U1.10)    -.6077                       

(X_U1.11)   19.9600                   (X_U1.12)   19.9600                       

(X_U1.13)    -.5938                   (X_U1.14)    -.5938                       

(X_U1.53)   19.0000                   (X_U1.54)  -19.0000                       

(X_U1.90) 389.8E-06                   (X_U1.91)   40.0000                       

(X_U1.92)  -40.0000                   (X_U1.99)    0.0000                       

(X_U2.10)    -.6077                   (X_U2.11)   19.9600                       

(X_U2.12)   19.9600                   (X_U2.13)    -.5938                       

(X_U2.14)    -.5938                   (X_U2.53)   19.0000                       

(X_U2.54)  -19.0000                   (X_U2.90)-209.8E-06                       

(X_U2.91)   40.0000                   (X_U2.92)  -40.0000                       

(X_U2.99)    0.0000                   (NEGSUPPLY)  -20.0000                     

(POSSUPPLY)   20.0000                 




    VOLTAGE SOURCE CURRENTS
    NAME         CURRENT

    V_V1        -4.435E-03
    V_V2        -4.436E-03
    V_V4        -7.972E-08
    X_U1.vb     -3.669E-13
    X_U1.vc      1.900E-11
    X_U1.ve      2.160E-11
    X_U1.vlim    3.898E-07
    X_U1.vlp    -4.000E-11
    X_U1.vln    -4.000E-11
    X_U2.vb      8.342E-13
    X_U2.vc      1.900E-11
    X_U2.ve      2.160E-11
    X_U2.vlim   -2.098E-07
    X_U2.vlp    -4.000E-11
    X_U2.vln    -4.000E-11

    TOTAL POWER DISSIPATION   1.77E-01  WATTS


**** 04/02/19 15:18:16 ****** PSpice 17.2.0 (March 2016) ****** ID# 0 ********

 ** Profile: "SCHEMATIC1-Monte"  [ E:\Circuits-I\Lab4\Lab4-PSpiceFiles\SCHEMATIC1\Monte.sim ] 


 ****     INITIAL TRANSIENT SOLUTION       TEMPERATURE =   27.000 DEG C

                      MONTE CARLO PASS 13

******************************************************************************



 NODE   VOLTAGE     NODE   VOLTAGE     NODE   VOLTAGE     NODE   VOLTAGE


(N00580) 19.26E-06 (N00878)    0.0000 (VININV) 342.0E-06 (VINNON) 19.25E-06     

(X_U1.6)-38.62E-09 (X_U1.7) 363.3E-06 (X_U1.8) 363.3E-06 (X_U1.9)    0.0000     

(X_U2.6) 93.74E-09 (X_U2.7)-973.1E-06 (X_U2.8)-973.1E-06 (X_U2.9)    0.0000     

(VOUTINV)-960.7E-06                   (X_U1.10)    -.6077                       

(X_U1.11)   19.9600                   (X_U1.12)   19.9600                       

(X_U1.13)    -.5938                   (X_U1.14)    -.5938                       

(X_U1.53)   19.0000                   (X_U1.54)  -19.0000                       

(X_U1.90) 425.7E-06                   (X_U1.91)   40.0000                       

(X_U1.92)  -40.0000                   (X_U1.99)    0.0000                       

(X_U2.10)    -.6077                   (X_U2.11)   19.9600                       

(X_U2.12)   19.9600                   (X_U2.13)    -.5938                       

(X_U2.14)    -.5938                   (X_U2.53)   19.0000                       

(X_U2.54)  -19.0000                   (X_U2.90)-247.8E-06                       

(X_U2.91)   40.0000                   (X_U2.92)  -40.0000                       

(X_U2.99)    0.0000                   (NEGSUPPLY)  -20.0000                     

(POSSUPPLY)   20.0000                 




    VOLTAGE SOURCE CURRENTS
    NAME         CURRENT

    V_V1        -4.435E-03
    V_V2        -4.436E-03
    V_V4        -7.972E-08
    X_U1.vb     -3.862E-13
    X_U1.vc      1.900E-11
    X_U1.ve      2.160E-11
    X_U1.vlim    4.257E-07
    X_U1.vlp    -4.000E-11
    X_U1.vln    -4.000E-11
    X_U2.vb      9.374E-13
    X_U2.vc      1.900E-11
    X_U2.ve      2.160E-11
    X_U2.vlim   -2.478E-07
    X_U2.vlp    -4.000E-11
    X_U2.vln    -4.000E-11

    TOTAL POWER DISSIPATION   1.77E-01  WATTS


**** 04/02/19 15:18:16 ****** PSpice 17.2.0 (March 2016) ****** ID# 0 ********

 ** Profile: "SCHEMATIC1-Monte"  [ E:\Circuits-I\Lab4\Lab4-PSpiceFiles\SCHEMATIC1\Monte.sim ] 


 ****     INITIAL TRANSIENT SOLUTION       TEMPERATURE =   27.000 DEG C

                      MONTE CARLO PASS 14

******************************************************************************



 NODE   VOLTAGE     NODE   VOLTAGE     NODE   VOLTAGE     NODE   VOLTAGE


(N00580) 19.26E-06 (N00878)    0.0000 (VININV) 324.0E-06 (VINNON) 19.25E-06     

(X_U1.6)-36.26E-09 (X_U1.7) 343.0E-06 (X_U1.8) 343.0E-06 (X_U1.9)    0.0000     

(X_U2.6) 73.57E-09 (X_U2.7)-763.9E-06 (X_U2.8)-763.9E-06 (X_U2.9)    0.0000     

(VOUTINV)-753.9E-06                   (X_U1.10)    -.6077                       

(X_U1.11)   19.9600                   (X_U1.12)   19.9600                       

(X_U1.13)    -.5938                   (X_U1.14)    -.5938                       

(X_U1.53)   19.0000                   (X_U1.54)  -19.0000                       

(X_U1.90) 379.6E-06                   (X_U1.91)   40.0000                       

(X_U1.92)  -40.0000                   (X_U1.99)    0.0000                       

(X_U2.10)    -.6077                   (X_U2.11)   19.9600                       

(X_U2.12)   19.9600                   (X_U2.13)    -.5938                       

(X_U2.14)    -.5938                   (X_U2.53)   19.0000                       

(X_U2.54)  -19.0000                   (X_U2.90)-200.2E-06                       

(X_U2.91)   40.0000                   (X_U2.92)  -40.0000                       

(X_U2.99)    0.0000                   (NEGSUPPLY)  -20.0000                     

(POSSUPPLY)   20.0000                 




    VOLTAGE SOURCE CURRENTS
    NAME         CURRENT

    V_V1        -4.435E-03
    V_V2        -4.436E-03
    V_V4        -7.972E-08
    X_U1.vb     -3.626E-13
    X_U1.vc      1.900E-11
    X_U1.ve      2.160E-11
    X_U1.vlim    3.796E-07
    X_U1.vlp    -4.000E-11
    X_U1.vln    -4.000E-11
    X_U2.vb      7.357E-13
    X_U2.vc      1.900E-11
    X_U2.ve      2.160E-11
    X_U2.vlim   -2.002E-07
    X_U2.vlp    -4.000E-11
    X_U2.vln    -4.000E-11

    TOTAL POWER DISSIPATION   1.77E-01  WATTS


**** 04/02/19 15:18:16 ****** PSpice 17.2.0 (March 2016) ****** ID# 0 ********

 ** Profile: "SCHEMATIC1-Monte"  [ E:\Circuits-I\Lab4\Lab4-PSpiceFiles\SCHEMATIC1\Monte.sim ] 


 ****     INITIAL TRANSIENT SOLUTION       TEMPERATURE =   27.000 DEG C

                      MONTE CARLO PASS 15

******************************************************************************



 NODE   VOLTAGE     NODE   VOLTAGE     NODE   VOLTAGE     NODE   VOLTAGE


(N00580) 19.26E-06 (N00878)    0.0000 (VININV) 338.2E-06 (VINNON) 19.25E-06     

(X_U1.6)-38.14E-09 (X_U1.7) 359.0E-06 (X_U1.8) 359.0E-06 (X_U1.9)    0.0000     

(X_U2.6) 88.88E-09 (X_U2.7)-922.4E-06 (X_U2.8)-922.4E-06 (X_U2.9)    0.0000     

(VOUTINV)-910.4E-06                   (X_U1.10)    -.6077                       

(X_U1.11)   19.9600                   (X_U1.12)   19.9600                       

(X_U1.13)    -.5938                   (X_U1.14)    -.5938                       

(X_U1.53)   19.0000                   (X_U1.54)  -19.0000                       

(X_U1.90) 417.7E-06                   (X_U1.91)   40.0000                       

(X_U1.92)  -40.0000                   (X_U1.99)    0.0000                       

(X_U2.10)    -.6077                   (X_U2.11)   19.9600                       

(X_U2.12)   19.9600                   (X_U2.13)    -.5938                       

(X_U2.14)    -.5938                   (X_U2.53)   19.0000                       

(X_U2.54)  -19.0000                   (X_U2.90)-239.6E-06                       

(X_U2.91)   40.0000                   (X_U2.92)  -40.0000                       

(X_U2.99)    0.0000                   (NEGSUPPLY)  -20.0000                     

(POSSUPPLY)   20.0000                 




    VOLTAGE SOURCE CURRENTS
    NAME         CURRENT

    V_V1        -4.435E-03
    V_V2        -4.436E-03
    V_V4        -7.972E-08
    X_U1.vb     -3.814E-13
    X_U1.vc      1.900E-11
    X_U1.ve      2.160E-11
    X_U1.vlim    4.177E-07
    X_U1.vlp    -4.000E-11
    X_U1.vln    -4.000E-11
    X_U2.vb      8.888E-13
    X_U2.vc      1.900E-11
    X_U2.ve      2.160E-11
    X_U2.vlim   -2.396E-07
    X_U2.vlp    -4.000E-11
    X_U2.vln    -4.000E-11

    TOTAL POWER DISSIPATION   1.77E-01  WATTS


**** 04/02/19 15:18:16 ****** PSpice 17.2.0 (March 2016) ****** ID# 0 ********

 ** Profile: "SCHEMATIC1-Monte"  [ E:\Circuits-I\Lab4\Lab4-PSpiceFiles\SCHEMATIC1\Monte.sim ] 


 ****     INITIAL TRANSIENT SOLUTION       TEMPERATURE =   27.000 DEG C

                      MONTE CARLO PASS 16

******************************************************************************



 NODE   VOLTAGE     NODE   VOLTAGE     NODE   VOLTAGE     NODE   VOLTAGE


(N00580) 19.26E-06 (N00878)    0.0000 (VININV) 334.3E-06 (VINNON) 19.25E-06     

(X_U1.6)-37.38E-09 (X_U1.7) 353.8E-06 (X_U1.8) 353.8E-06 (X_U1.9)    0.0000     

(X_U2.6) 74.94E-09 (X_U2.7)-777.3E-06 (X_U2.8)-777.3E-06 (X_U2.9)    0.0000     

(VOUTINV)-766.7E-06                   (X_U1.10)    -.6077                       

(X_U1.11)   19.9600                   (X_U1.12)   19.9600                       

(X_U1.13)    -.5938                   (X_U1.14)    -.5938                       

(X_U1.53)   19.0000                   (X_U1.54)  -19.0000                       

(X_U1.90) 389.7E-06                   (X_U1.91)   40.0000                       

(X_U1.92)  -40.0000                   (X_U1.99)    0.0000                       

(X_U2.10)    -.6077                   (X_U2.11)   19.9600                       

(X_U2.12)   19.9600                   (X_U2.13)    -.5938                       

(X_U2.14)    -.5938                   (X_U2.53)   19.0000                       

(X_U2.54)  -19.0000                   (X_U2.90)-212.0E-06                       

(X_U2.91)   40.0000                   (X_U2.92)  -40.0000                       

(X_U2.99)    0.0000                   (NEGSUPPLY)  -20.0000                     

(POSSUPPLY)   20.0000                 




    VOLTAGE SOURCE CURRENTS
    NAME         CURRENT

    V_V1        -4.435E-03
    V_V2        -4.436E-03
    V_V4        -7.972E-08
    X_U1.vb     -3.738E-13
    X_U1.vc      1.900E-11
    X_U1.ve      2.160E-11
    X_U1.vlim    3.897E-07
    X_U1.vlp    -4.000E-11
    X_U1.vln    -4.000E-11
    X_U2.vb      7.494E-13
    X_U2.vc      1.900E-11
    X_U2.ve      2.160E-11
    X_U2.vlim   -2.120E-07
    X_U2.vlp    -4.000E-11
    X_U2.vln    -4.000E-11

    TOTAL POWER DISSIPATION   1.77E-01  WATTS


**** 04/02/19 15:18:16 ****** PSpice 17.2.0 (March 2016) ****** ID# 0 ********

 ** Profile: "SCHEMATIC1-Monte"  [ E:\Circuits-I\Lab4\Lab4-PSpiceFiles\SCHEMATIC1\Monte.sim ] 


 ****     INITIAL TRANSIENT SOLUTION       TEMPERATURE =   27.000 DEG C

                      MONTE CARLO PASS 17

******************************************************************************



 NODE   VOLTAGE     NODE   VOLTAGE     NODE   VOLTAGE     NODE   VOLTAGE


(N00580) 19.26E-06 (N00878)    0.0000 (VININV) 343.0E-06 (VINNON) 19.25E-06     

(X_U1.6)-38.50E-09 (X_U1.7) 363.5E-06 (X_U1.8) 363.5E-06 (X_U1.9)    0.0000     

(X_U2.6) 89.20E-09 (X_U2.7)-926.5E-06 (X_U2.8)-926.5E-06 (X_U2.9)    0.0000     

(VOUTINV)-914.9E-06                   (X_U1.10)    -.6077                       

(X_U1.11)   19.9600                   (X_U1.12)   19.9600                       

(X_U1.13)    -.5938                   (X_U1.14)    -.5938                       

(X_U1.53)   19.0000                   (X_U1.54)  -19.0000                       

(X_U1.90) 411.3E-06                   (X_U1.91)   40.0000                       

(X_U1.92)  -40.0000                   (X_U1.99)    0.0000                       

(X_U2.10)    -.6077                   (X_U2.11)   19.9600                       

(X_U2.12)   19.9600                   (X_U2.13)    -.5938                       

(X_U2.14)    -.5938                   (X_U2.53)   19.0000                       

(X_U2.54)  -19.0000                   (X_U2.90)-232.0E-06                       

(X_U2.91)   40.0000                   (X_U2.92)  -40.0000                       

(X_U2.99)    0.0000                   (NEGSUPPLY)  -20.0000                     

(POSSUPPLY)   20.0000                 




    VOLTAGE SOURCE CURRENTS
    NAME         CURRENT

    V_V1        -4.435E-03
    V_V2        -4.436E-03
    V_V4        -7.972E-08
    X_U1.vb     -3.850E-13
    X_U1.vc      1.900E-11
    X_U1.ve      2.160E-11
    X_U1.vlim    4.113E-07
    X_U1.vlp    -4.000E-11
    X_U1.vln    -4.000E-11
    X_U2.vb      8.920E-13
    X_U2.vc      1.900E-11
    X_U2.ve      2.160E-11
    X_U2.vlim   -2.320E-07
    X_U2.vlp    -4.000E-11
    X_U2.vln    -4.000E-11

    TOTAL POWER DISSIPATION   1.77E-01  WATTS


**** 04/02/19 15:18:16 ****** PSpice 17.2.0 (March 2016) ****** ID# 0 ********

 ** Profile: "SCHEMATIC1-Monte"  [ E:\Circuits-I\Lab4\Lab4-PSpiceFiles\SCHEMATIC1\Monte.sim ] 


 ****     INITIAL TRANSIENT SOLUTION       TEMPERATURE =   27.000 DEG C

                      MONTE CARLO PASS 18

******************************************************************************



 NODE   VOLTAGE     NODE   VOLTAGE     NODE   VOLTAGE     NODE   VOLTAGE


(N00580) 19.26E-06 (N00878)    0.0000 (VININV) 329.5E-06 (VINNON) 19.25E-06     

(X_U1.6)-37.27E-09 (X_U1.7) 350.2E-06 (X_U1.8) 350.2E-06 (X_U1.9)    0.0000     

(X_U2.6) 82.48E-09 (X_U2.7)-855.1E-06 (X_U2.8)-855.1E-06 (X_U2.9)    0.0000     

(VOUTINV)-843.4E-06                   (X_U1.10)    -.6077                       

(X_U1.11)   19.9600                   (X_U1.12)   19.9600                       

(X_U1.13)    -.5938                   (X_U1.14)    -.5938                       

(X_U1.53)   19.0000                   (X_U1.54)  -19.0000                       

(X_U1.90) 413.8E-06                   (X_U1.91)   40.0000                       

(X_U1.92)  -40.0000                   (X_U1.99)    0.0000                       

(X_U2.10)    -.6077                   (X_U2.11)   19.9600                       

(X_U2.12)   19.9600                   (X_U2.13)    -.5938                       

(X_U2.14)    -.5938                   (X_U2.53)   19.0000                       

(X_U2.54)  -19.0000                   (X_U2.90)-234.2E-06                       

(X_U2.91)   40.0000                   (X_U2.92)  -40.0000                       

(X_U2.99)    0.0000                   (NEGSUPPLY)  -20.0000                     

(POSSUPPLY)   20.0000                 




    VOLTAGE SOURCE CURRENTS
    NAME         CURRENT

    V_V1        -4.435E-03
    V_V2        -4.436E-03
    V_V4        -7.972E-08
    X_U1.vb     -3.727E-13
    X_U1.vc      1.900E-11
    X_U1.ve      2.160E-11
    X_U1.vlim    4.138E-07
    X_U1.vlp    -4.000E-11
    X_U1.vln    -4.000E-11
    X_U2.vb      8.248E-13
    X_U2.vc      1.900E-11
    X_U2.ve      2.160E-11
    X_U2.vlim   -2.342E-07
    X_U2.vlp    -4.000E-11
    X_U2.vln    -4.000E-11

    TOTAL POWER DISSIPATION   1.77E-01  WATTS


**** 04/02/19 15:18:16 ****** PSpice 17.2.0 (March 2016) ****** ID# 0 ********

 ** Profile: "SCHEMATIC1-Monte"  [ E:\Circuits-I\Lab4\Lab4-PSpiceFiles\SCHEMATIC1\Monte.sim ] 


 ****     INITIAL TRANSIENT SOLUTION       TEMPERATURE =   27.000 DEG C

                      MONTE CARLO PASS 19

******************************************************************************



 NODE   VOLTAGE     NODE   VOLTAGE     NODE   VOLTAGE     NODE   VOLTAGE


(N00580) 19.26E-06 (N00878)    0.0000 (VININV) 328.5E-06 (VINNON) 19.25E-06     

(X_U1.6)-37.31E-09 (X_U1.7) 349.6E-06 (X_U1.8) 349.6E-06 (X_U1.9)    0.0000     

(X_U2.6) 88.55E-09 (X_U2.7)-918.4E-06 (X_U2.8)-918.4E-06 (X_U2.9)    0.0000     

(VOUTINV)-906.1E-06                   (X_U1.10)    -.6077                       

(X_U1.11)   19.9600                   (X_U1.12)   19.9600                       

(X_U1.13)    -.5938                   (X_U1.14)    -.5938                       

(X_U1.53)   19.0000                   (X_U1.54)  -19.0000                       

(X_U1.90) 423.5E-06                   (X_U1.91)   40.0000                       

(X_U1.92)  -40.0000                   (X_U1.99)    0.0000                       

(X_U2.10)    -.6077                   (X_U2.11)   19.9600                       

(X_U2.12)   19.9600                   (X_U2.13)    -.5938                       

(X_U2.14)    -.5938                   (X_U2.53)   19.0000                       

(X_U2.54)  -19.0000                   (X_U2.90)-244.8E-06                       

(X_U2.91)   40.0000                   (X_U2.92)  -40.0000                       

(X_U2.99)    0.0000                   (NEGSUPPLY)  -20.0000                     

(POSSUPPLY)   20.0000                 




    VOLTAGE SOURCE CURRENTS
    NAME         CURRENT

    V_V1        -4.435E-03
    V_V2        -4.436E-03
    V_V4        -7.972E-08
    X_U1.vb     -3.731E-13
    X_U1.vc      1.900E-11
    X_U1.ve      2.160E-11
    X_U1.vlim    4.235E-07
    X_U1.vlp    -4.000E-11
    X_U1.vln    -4.000E-11
    X_U2.vb      8.855E-13
    X_U2.vc      1.900E-11
    X_U2.ve      2.160E-11
    X_U2.vlim   -2.448E-07
    X_U2.vlp    -4.000E-11
    X_U2.vln    -4.000E-11

    TOTAL POWER DISSIPATION   1.77E-01  WATTS


**** 04/02/19 15:18:16 ****** PSpice 17.2.0 (March 2016) ****** ID# 0 ********

 ** Profile: "SCHEMATIC1-Monte"  [ E:\Circuits-I\Lab4\Lab4-PSpiceFiles\SCHEMATIC1\Monte.sim ] 


 ****     INITIAL TRANSIENT SOLUTION       TEMPERATURE =   27.000 DEG C

                      MONTE CARLO PASS 20

******************************************************************************



 NODE   VOLTAGE     NODE   VOLTAGE     NODE   VOLTAGE     NODE   VOLTAGE


(N00580) 19.26E-06 (N00878)    0.0000 (VININV) 300.9E-06 (VINNON) 19.25E-06     

(X_U1.6)-34.08E-09 (X_U1.7) 319.8E-06 (X_U1.8) 319.8E-06 (X_U1.9)    0.0000     

(X_U2.6) 80.45E-09 (X_U2.7)-836.7E-06 (X_U2.8)-836.7E-06 (X_U2.9)    0.0000     

(VOUTINV)-826.6E-06                   (X_U1.10)    -.6077                       

(X_U1.11)   19.9600                   (X_U1.12)   19.9600                       

(X_U1.13)    -.5938                   (X_U1.14)    -.5938                       

(X_U1.53)   19.0000                   (X_U1.54)  -19.0000                       

(X_U1.90) 379.7E-06                   (X_U1.91)   40.0000                       

(X_U1.92)  -40.0000                   (X_U1.99)    0.0000                       

(X_U2.10)    -.6077                   (X_U2.11)   19.9600                       

(X_U2.12)   19.9600                   (X_U2.13)    -.5938                       

(X_U2.14)    -.5938                   (X_U2.53)   19.0000                       

(X_U2.54)  -19.0000                   (X_U2.90)-202.6E-06                       

(X_U2.91)   40.0000                   (X_U2.92)  -40.0000                       

(X_U2.99)    0.0000                   (NEGSUPPLY)  -20.0000                     

(POSSUPPLY)   20.0000                 




    VOLTAGE SOURCE CURRENTS
    NAME         CURRENT

    V_V1        -4.435E-03
    V_V2        -4.436E-03
    V_V4        -7.972E-08
    X_U1.vb     -3.408E-13
    X_U1.vc      1.900E-11
    X_U1.ve      2.160E-11
    X_U1.vlim    3.797E-07
    X_U1.vlp    -4.000E-11
    X_U1.vln    -4.000E-11
    X_U2.vb      8.045E-13
    X_U2.vc      1.900E-11
    X_U2.ve      2.160E-11
    X_U2.vlim   -2.026E-07
    X_U2.vlp    -4.000E-11
    X_U2.vln    -4.000E-11

    TOTAL POWER DISSIPATION   1.77E-01  WATTS


**** 04/02/19 15:18:16 ****** PSpice 17.2.0 (March 2016) ****** ID# 0 ********

 ** Profile: "SCHEMATIC1-Monte"  [ E:\Circuits-I\Lab4\Lab4-PSpiceFiles\SCHEMATIC1\Monte.sim ] 


 ****     INITIAL TRANSIENT SOLUTION       TEMPERATURE =   27.000 DEG C

                      MONTE CARLO PASS 21

******************************************************************************



 NODE   VOLTAGE     NODE   VOLTAGE     NODE   VOLTAGE     NODE   VOLTAGE


(N00580) 19.26E-06 (N00878)    0.0000 (VININV) 332.1E-06 (VINNON) 19.25E-06     

(X_U1.6)-37.26E-09 (X_U1.7) 351.9E-06 (X_U1.8) 351.9E-06 (X_U1.9)    0.0000     

(X_U2.6) 84.88E-09 (X_U2.7)-882.2E-06 (X_U2.8)-882.2E-06 (X_U2.9)    0.0000     

(VOUTINV)-871.3E-06                   (X_U1.10)    -.6077                       

(X_U1.11)   19.9600                   (X_U1.12)   19.9600                       

(X_U1.13)    -.5938                   (X_U1.14)    -.5938                       

(X_U1.53)   19.0000                   (X_U1.54)  -19.0000                       

(X_U1.90) 396.7E-06                   (X_U1.91)   40.0000                       

(X_U1.92)  -40.0000                   (X_U1.99)    0.0000                       

(X_U2.10)    -.6077                   (X_U2.11)   19.9600                       

(X_U2.12)   19.9600                   (X_U2.13)    -.5938                       

(X_U2.14)    -.5938                   (X_U2.53)   19.0000                       

(X_U2.54)  -19.0000                   (X_U2.90)-217.4E-06                       

(X_U2.91)   40.0000                   (X_U2.92)  -40.0000                       

(X_U2.99)    0.0000                   (NEGSUPPLY)  -20.0000                     

(POSSUPPLY)   20.0000                 




    VOLTAGE SOURCE CURRENTS
    NAME         CURRENT

    V_V1        -4.435E-03
    V_V2        -4.436E-03
    V_V4        -7.972E-08
    X_U1.vb     -3.726E-13
    X_U1.vc      1.900E-11
    X_U1.ve      2.160E-11
    X_U1.vlim    3.967E-07
    X_U1.vlp    -4.000E-11
    X_U1.vln    -4.000E-11
    X_U2.vb      8.488E-13
    X_U2.vc      1.900E-11
    X_U2.ve      2.160E-11
    X_U2.vlim   -2.174E-07
    X_U2.vlp    -4.000E-11
    X_U2.vln    -4.000E-11

    TOTAL POWER DISSIPATION   1.77E-01  WATTS


**** 04/02/19 15:18:16 ****** PSpice 17.2.0 (March 2016) ****** ID# 0 ********

 ** Profile: "SCHEMATIC1-Monte"  [ E:\Circuits-I\Lab4\Lab4-PSpiceFiles\SCHEMATIC1\Monte.sim ] 


 ****     INITIAL TRANSIENT SOLUTION       TEMPERATURE =   27.000 DEG C

                      MONTE CARLO PASS 22

******************************************************************************



 NODE   VOLTAGE     NODE   VOLTAGE     NODE   VOLTAGE     NODE   VOLTAGE


(N00580) 19.26E-06 (N00878)    0.0000 (VININV) 337.4E-06 (VINNON) 19.25E-06     

(X_U1.6)-38.02E-09 (X_U1.7) 358.1E-06 (X_U1.8) 358.1E-06 (X_U1.9)    0.0000     

(X_U2.6) 94.03E-09 (X_U2.7)-977.5E-06 (X_U2.8)-977.5E-06 (X_U2.9)    0.0000     

(VOUTINV)-965.8E-06                   (X_U1.10)    -.6077                       

(X_U1.11)   19.9600                   (X_U1.12)   19.9600                       

(X_U1.13)    -.5938                   (X_U1.14)    -.5938                       

(X_U1.53)   19.0000                   (X_U1.54)  -19.0000                       

(X_U1.90) 414.7E-06                   (X_U1.91)   40.0000                       

(X_U1.92)  -40.0000                   (X_U1.99)    0.0000                       

(X_U2.10)    -.6077                   (X_U2.11)   19.9600                       

(X_U2.12)   19.9600                   (X_U2.13)    -.5938                       

(X_U2.14)    -.5938                   (X_U2.53)   19.0000                       

(X_U2.54)  -19.0000                   (X_U2.90)-235.2E-06                       

(X_U2.91)   40.0000                   (X_U2.92)  -40.0000                       

(X_U2.99)    0.0000                   (NEGSUPPLY)  -20.0000                     

(POSSUPPLY)   20.0000                 




    VOLTAGE SOURCE CURRENTS
    NAME         CURRENT

    V_V1        -4.435E-03
    V_V2        -4.436E-03
    V_V4        -7.972E-08
    X_U1.vb     -3.802E-13
    X_U1.vc      1.900E-11
    X_U1.ve      2.160E-11
    X_U1.vlim    4.147E-07
    X_U1.vlp    -4.000E-11
    X_U1.vln    -4.000E-11
    X_U2.vb      9.403E-13
    X_U2.vc      1.900E-11
    X_U2.ve      2.160E-11
    X_U2.vlim   -2.352E-07
    X_U2.vlp    -4.000E-11
    X_U2.vln    -4.000E-11

    TOTAL POWER DISSIPATION   1.77E-01  WATTS


**** 04/02/19 15:18:16 ****** PSpice 17.2.0 (March 2016) ****** ID# 0 ********

 ** Profile: "SCHEMATIC1-Monte"  [ E:\Circuits-I\Lab4\Lab4-PSpiceFiles\SCHEMATIC1\Monte.sim ] 


 ****     INITIAL TRANSIENT SOLUTION       TEMPERATURE =   27.000 DEG C

                      MONTE CARLO PASS 23

******************************************************************************



 NODE   VOLTAGE     NODE   VOLTAGE     NODE   VOLTAGE     NODE   VOLTAGE


(N00580) 19.26E-06 (N00878)    0.0000 (VININV) 307.6E-06 (VINNON) 19.25E-06     

(X_U1.6)-34.93E-09 (X_U1.7) 327.3E-06 (X_U1.8) 327.3E-06 (X_U1.9)    0.0000     

(X_U2.6) 80.40E-09 (X_U2.7)-835.0E-06 (X_U2.8)-835.0E-06 (X_U2.9)    0.0000     

(VOUTINV)-824.3E-06                   (X_U1.10)    -.6077                       

(X_U1.11)   19.9600                   (X_U1.12)   19.9600                       

(X_U1.13)    -.5938                   (X_U1.14)    -.5938                       

(X_U1.53)   19.0000                   (X_U1.54)  -19.0000                       

(X_U1.90) 394.8E-06                   (X_U1.91)   40.0000                       

(X_U1.92)  -40.0000                   (X_U1.99)    0.0000                       

(X_U2.10)    -.6077                   (X_U2.11)   19.9600                       

(X_U2.12)   19.9600                   (X_U2.13)    -.5938                       

(X_U2.14)    -.5938                   (X_U2.53)   19.0000                       

(X_U2.54)  -19.0000                   (X_U2.90)-213.9E-06                       

(X_U2.91)   40.0000                   (X_U2.92)  -40.0000                       

(X_U2.99)    0.0000                   (NEGSUPPLY)  -20.0000                     

(POSSUPPLY)   20.0000                 




    VOLTAGE SOURCE CURRENTS
    NAME         CURRENT

    V_V1        -4.435E-03
    V_V2        -4.436E-03
    V_V4        -7.972E-08
    X_U1.vb     -3.493E-13
    X_U1.vc      1.900E-11
    X_U1.ve      2.160E-11
    X_U1.vlim    3.948E-07
    X_U1.vlp    -4.000E-11
    X_U1.vln    -4.000E-11
    X_U2.vb      8.040E-13
    X_U2.vc      1.900E-11
    X_U2.ve      2.160E-11
    X_U2.vlim   -2.139E-07
    X_U2.vlp    -4.000E-11
    X_U2.vln    -4.000E-11

    TOTAL POWER DISSIPATION   1.77E-01  WATTS


**** 04/02/19 15:18:16 ****** PSpice 17.2.0 (March 2016) ****** ID# 0 ********

 ** Profile: "SCHEMATIC1-Monte"  [ E:\Circuits-I\Lab4\Lab4-PSpiceFiles\SCHEMATIC1\Monte.sim ] 


 ****     INITIAL TRANSIENT SOLUTION       TEMPERATURE =   27.000 DEG C

                      MONTE CARLO PASS 24

******************************************************************************



 NODE   VOLTAGE     NODE   VOLTAGE     NODE   VOLTAGE     NODE   VOLTAGE


(N00580) 19.26E-06 (N00878)    0.0000 (VININV) 323.5E-06 (VINNON) 19.25E-06     

(X_U1.6)-36.38E-09 (X_U1.7) 343.1E-06 (X_U1.8) 343.1E-06 (X_U1.9)    0.0000     

(X_U2.6) 78.27E-09 (X_U2.7)-812.4E-06 (X_U2.8)-812.4E-06 (X_U2.9)    0.0000     

(VOUTINV)-801.7E-06                   (X_U1.10)    -.6077                       

(X_U1.11)   19.9600                   (X_U1.12)   19.9600                       

(X_U1.13)    -.5938                   (X_U1.14)    -.5938                       

(X_U1.53)   19.0000                   (X_U1.54)  -19.0000                       

(X_U1.90) 391.2E-06                   (X_U1.91)   40.0000                       

(X_U1.92)  -40.0000                   (X_U1.99)    0.0000                       

(X_U2.10)    -.6077                   (X_U2.11)   19.9600                       

(X_U2.12)   19.9600                   (X_U2.13)    -.5938                       

(X_U2.14)    -.5938                   (X_U2.53)   19.0000                       

(X_U2.54)  -19.0000                   (X_U2.90)-214.1E-06                       

(X_U2.91)   40.0000                   (X_U2.92)  -40.0000                       

(X_U2.99)    0.0000                   (NEGSUPPLY)  -20.0000                     

(POSSUPPLY)   20.0000                 




    VOLTAGE SOURCE CURRENTS
    NAME         CURRENT

    V_V1        -4.435E-03
    V_V2        -4.436E-03
    V_V4        -7.972E-08
    X_U1.vb     -3.638E-13
    X_U1.vc      1.900E-11
    X_U1.ve      2.160E-11
    X_U1.vlim    3.912E-07
    X_U1.vlp    -4.000E-11
    X_U1.vln    -4.000E-11
    X_U2.vb      7.827E-13
    X_U2.vc      1.900E-11
    X_U2.ve      2.160E-11
    X_U2.vlim   -2.141E-07
    X_U2.vlp    -4.000E-11
    X_U2.vln    -4.000E-11

    TOTAL POWER DISSIPATION   1.77E-01  WATTS


**** 04/02/19 15:18:16 ****** PSpice 17.2.0 (March 2016) ****** ID# 0 ********

 ** Profile: "SCHEMATIC1-Monte"  [ E:\Circuits-I\Lab4\Lab4-PSpiceFiles\SCHEMATIC1\Monte.sim ] 


 ****     INITIAL TRANSIENT SOLUTION       TEMPERATURE =   27.000 DEG C

                      MONTE CARLO PASS 25

******************************************************************************



 NODE   VOLTAGE     NODE   VOLTAGE     NODE   VOLTAGE     NODE   VOLTAGE


(N00580) 19.26E-06 (N00878)    0.0000 (VININV) 335.7E-06 (VINNON) 19.25E-06     

(X_U1.6)-37.93E-09 (X_U1.7) 356.7E-06 (X_U1.8) 356.7E-06 (X_U1.9)    0.0000     

(X_U2.6) 91.13E-09 (X_U2.7)-946.2E-06 (X_U2.8)-946.2E-06 (X_U2.9)    0.0000     

(VOUTINV)-934.2E-06                   (X_U1.10)    -.6077                       

(X_U1.11)   19.9600                   (X_U1.12)   19.9600                       

(X_U1.13)    -.5938                   (X_U1.14)    -.5938                       

(X_U1.53)   19.0000                   (X_U1.54)  -19.0000                       

(X_U1.90) 419.5E-06                   (X_U1.91)   40.0000                       

(X_U1.92)  -40.0000                   (X_U1.99)    0.0000                       

(X_U2.10)    -.6077                   (X_U2.11)   19.9600                       

(X_U2.12)   19.9600                   (X_U2.13)    -.5938                       

(X_U2.14)    -.5938                   (X_U2.53)   19.0000                       

(X_U2.54)  -19.0000                   (X_U2.90)-239.8E-06                       

(X_U2.91)   40.0000                   (X_U2.92)  -40.0000                       

(X_U2.99)    0.0000                   (NEGSUPPLY)  -20.0000                     

(POSSUPPLY)   20.0000                 




    VOLTAGE SOURCE CURRENTS
    NAME         CURRENT

    V_V1        -4.435E-03
    V_V2        -4.436E-03
    V_V4        -7.972E-08
    X_U1.vb     -3.793E-13
    X_U1.vc      1.900E-11
    X_U1.ve      2.160E-11
    X_U1.vlim    4.195E-07
    X_U1.vlp    -4.000E-11
    X_U1.vln    -4.000E-11
    X_U2.vb      9.113E-13
    X_U2.vc      1.900E-11
    X_U2.ve      2.160E-11
    X_U2.vlim   -2.398E-07
    X_U2.vlp    -4.000E-11
    X_U2.vln    -4.000E-11

    TOTAL POWER DISSIPATION   1.77E-01  WATTS


**** 04/02/19 15:18:16 ****** PSpice 17.2.0 (March 2016) ****** ID# 0 ********

 ** Profile: "SCHEMATIC1-Monte"  [ E:\Circuits-I\Lab4\Lab4-PSpiceFiles\SCHEMATIC1\Monte.sim ] 


 ****     INITIAL TRANSIENT SOLUTION       TEMPERATURE =   27.000 DEG C

                      MONTE CARLO PASS 26

******************************************************************************



 NODE   VOLTAGE     NODE   VOLTAGE     NODE   VOLTAGE     NODE   VOLTAGE


(N00580) 19.26E-06 (N00878)    0.0000 (VININV) 285.3E-06 (VINNON) 19.25E-06     

(X_U1.6)-32.61E-09 (X_U1.7) 304.3E-06 (X_U1.8) 304.3E-06 (X_U1.9)    0.0000     

(X_U2.6) 72.41E-09 (X_U2.7)-751.4E-06 (X_U2.8)-751.4E-06 (X_U2.9)    0.0000     

(VOUTINV)-741.3E-06                   (X_U1.10)    -.6077                       

(X_U1.11)   19.9600                   (X_U1.12)   19.9600                       

(X_U1.13)    -.5938                   (X_U1.14)    -.5938                       

(X_U1.53)   19.0000                   (X_U1.54)  -19.0000                       

(X_U1.90) 379.3E-06                   (X_U1.91)   40.0000                       

(X_U1.92)  -40.0000                   (X_U1.99)    0.0000                       

(X_U2.10)    -.6077                   (X_U2.11)   19.9600                       

(X_U2.12)   19.9600                   (X_U2.13)    -.5938                       

(X_U2.14)    -.5938                   (X_U2.53)   19.0000                       

(X_U2.54)  -19.0000                   (X_U2.90)-202.0E-06                       

(X_U2.91)   40.0000                   (X_U2.92)  -40.0000                       

(X_U2.99)    0.0000                   (NEGSUPPLY)  -20.0000                     

(POSSUPPLY)   20.0000                 




    VOLTAGE SOURCE CURRENTS
    NAME         CURRENT

    V_V1        -4.435E-03
    V_V2        -4.436E-03
    V_V4        -7.972E-08
    X_U1.vb     -3.261E-13
    X_U1.vc      1.900E-11
    X_U1.ve      2.160E-11
    X_U1.vlim    3.793E-07
    X_U1.vlp    -4.000E-11
    X_U1.vln    -4.000E-11
    X_U2.vb      7.241E-13
    X_U2.vc      1.900E-11
    X_U2.ve      2.160E-11
    X_U2.vlim   -2.020E-07
    X_U2.vlp    -4.000E-11
    X_U2.vln    -4.000E-11

    TOTAL POWER DISSIPATION   1.77E-01  WATTS


**** 04/02/19 15:18:16 ****** PSpice 17.2.0 (March 2016) ****** ID# 0 ********

 ** Profile: "SCHEMATIC1-Monte"  [ E:\Circuits-I\Lab4\Lab4-PSpiceFiles\SCHEMATIC1\Monte.sim ] 


 ****     INITIAL TRANSIENT SOLUTION       TEMPERATURE =   27.000 DEG C

                      MONTE CARLO PASS 27

******************************************************************************



 NODE   VOLTAGE     NODE   VOLTAGE     NODE   VOLTAGE     NODE   VOLTAGE


(N00580) 19.25E-06 (N00878)    0.0000 (VININV) 290.6E-06 (VINNON) 19.25E-06     

(X_U1.6)-32.92E-09 (X_U1.7) 308.9E-06 (X_U1.8) 308.9E-06 (X_U1.9)    0.0000     

(X_U2.6) 65.90E-09 (X_U2.7)-683.9E-06 (X_U2.8)-683.9E-06 (X_U2.9)    0.0000     

(VOUTINV)-674.6E-06                   (X_U1.10)    -.6077                       

(X_U1.11)   19.9600                   (X_U1.12)   19.9600                       

(X_U1.13)    -.5938                   (X_U1.14)    -.5938                       

(X_U1.53)   19.0000                   (X_U1.54)  -19.0000                       

(X_U1.90) 366.3E-06                   (X_U1.91)   40.0000                       

(X_U1.92)  -40.0000                   (X_U1.99)    0.0000                       

(X_U2.10)    -.6077                   (X_U2.11)   19.9600                       

(X_U2.12)   19.9600                   (X_U2.13)    -.5938                       

(X_U2.14)    -.5938                   (X_U2.53)   19.0000                       

(X_U2.54)  -19.0000                   (X_U2.90)-187.0E-06                       

(X_U2.91)   40.0000                   (X_U2.92)  -40.0000                       

(X_U2.99)    0.0000                   (NEGSUPPLY)  -20.0000                     

(POSSUPPLY)   20.0000                 




    VOLTAGE SOURCE CURRENTS
    NAME         CURRENT

    V_V1        -4.435E-03
    V_V2        -4.436E-03
    V_V4        -7.972E-08
    X_U1.vb     -3.292E-13
    X_U1.vc      1.900E-11
    X_U1.ve      2.160E-11
    X_U1.vlim    3.663E-07
    X_U1.vlp    -4.000E-11
    X_U1.vln    -4.000E-11
    X_U2.vb      6.590E-13
    X_U2.vc      1.900E-11
    X_U2.ve      2.160E-11
    X_U2.vlim   -1.870E-07
    X_U2.vlp    -4.000E-11
    X_U2.vln    -4.000E-11

    TOTAL POWER DISSIPATION   1.77E-01  WATTS


**** 04/02/19 15:18:16 ****** PSpice 17.2.0 (March 2016) ****** ID# 0 ********

 ** Profile: "SCHEMATIC1-Monte"  [ E:\Circuits-I\Lab4\Lab4-PSpiceFiles\SCHEMATIC1\Monte.sim ] 


 ****     INITIAL TRANSIENT SOLUTION       TEMPERATURE =   27.000 DEG C

                      MONTE CARLO PASS 28

******************************************************************************



 NODE   VOLTAGE     NODE   VOLTAGE     NODE   VOLTAGE     NODE   VOLTAGE


(N00580) 19.26E-06 (N00878)    0.0000 (VININV) 300.6E-06 (VINNON) 19.25E-06     

(X_U1.6)-34.40E-09 (X_U1.7) 320.8E-06 (X_U1.8) 320.8E-06 (X_U1.9)    0.0000     

(X_U2.6) 84.07E-09 (X_U2.7)-872.8E-06 (X_U2.8)-872.8E-06 (X_U2.9)    0.0000     

(VOUTINV)-861.5E-06                   (X_U1.10)    -.6077                       

(X_U1.11)   19.9600                   (X_U1.12)   19.9600                       

(X_U1.13)    -.5938                   (X_U1.14)    -.5938                       

(X_U1.53)   19.0000                   (X_U1.54)  -19.0000                       

(X_U1.90) 404.3E-06                   (X_U1.91)   40.0000                       

(X_U1.92)  -40.0000                   (X_U1.99)    0.0000                       

(X_U2.10)    -.6077                   (X_U2.11)   19.9600                       

(X_U2.12)   19.9600                   (X_U2.13)    -.5938                       

(X_U2.14)    -.5938                   (X_U2.53)   19.0000                       

(X_U2.54)  -19.0000                   (X_U2.90)-226.2E-06                       

(X_U2.91)   40.0000                   (X_U2.92)  -40.0000                       

(X_U2.99)    0.0000                   (NEGSUPPLY)  -20.0000                     

(POSSUPPLY)   20.0000                 




    VOLTAGE SOURCE CURRENTS
    NAME         CURRENT

    V_V1        -4.435E-03
    V_V2        -4.436E-03
    V_V4        -7.972E-08
    X_U1.vb     -3.440E-13
    X_U1.vc      1.900E-11
    X_U1.ve      2.160E-11
    X_U1.vlim    4.043E-07
    X_U1.vlp    -4.000E-11
    X_U1.vln    -4.000E-11
    X_U2.vb      8.407E-13
    X_U2.vc      1.900E-11
    X_U2.ve      2.160E-11
    X_U2.vlim   -2.262E-07
    X_U2.vlp    -4.000E-11
    X_U2.vln    -4.000E-11

    TOTAL POWER DISSIPATION   1.77E-01  WATTS


**** 04/02/19 15:18:16 ****** PSpice 17.2.0 (March 2016) ****** ID# 0 ********

 ** Profile: "SCHEMATIC1-Monte"  [ E:\Circuits-I\Lab4\Lab4-PSpiceFiles\SCHEMATIC1\Monte.sim ] 


 ****     INITIAL TRANSIENT SOLUTION       TEMPERATURE =   27.000 DEG C

                      MONTE CARLO PASS 29

******************************************************************************



 NODE   VOLTAGE     NODE   VOLTAGE     NODE   VOLTAGE     NODE   VOLTAGE


(N00580) 19.26E-06 (N00878)    0.0000 (VININV) 318.9E-06 (VINNON) 19.25E-06     

(X_U1.6)-36.07E-09 (X_U1.7) 338.9E-06 (X_U1.8) 338.9E-06 (X_U1.9)    0.0000     

(X_U2.6) 89.33E-09 (X_U2.7)-928.9E-06 (X_U2.8)-928.9E-06 (X_U2.9)    0.0000     

(VOUTINV)-917.7E-06                   (X_U1.10)    -.6077                       

(X_U1.11)   19.9600                   (X_U1.12)   19.9600                       

(X_U1.13)    -.5938                   (X_U1.14)    -.5938                       

(X_U1.53)   19.0000                   (X_U1.54)  -19.0000                       

(X_U1.90) 400.3E-06                   (X_U1.91)   40.0000                       

(X_U1.92)  -40.0000                   (X_U1.99)    0.0000                       

(X_U2.10)    -.6077                   (X_U2.11)   19.9600                       

(X_U2.12)   19.9600                   (X_U2.13)    -.5938                       

(X_U2.14)    -.5938                   (X_U2.53)   19.0000                       

(X_U2.54)  -19.0000                   (X_U2.90)-222.7E-06                       

(X_U2.91)   40.0000                   (X_U2.92)  -40.0000                       

(X_U2.99)    0.0000                   (NEGSUPPLY)  -20.0000                     

(POSSUPPLY)   20.0000                 




    VOLTAGE SOURCE CURRENTS
    NAME         CURRENT

    V_V1        -4.435E-03
    V_V2        -4.436E-03
    V_V4        -7.972E-08
    X_U1.vb     -3.607E-13
    X_U1.vc      1.900E-11
    X_U1.ve      2.160E-11
    X_U1.vlim    4.003E-07
    X_U1.vlp    -4.000E-11
    X_U1.vln    -4.000E-11
    X_U2.vb      8.933E-13
    X_U2.vc      1.900E-11
    X_U2.ve      2.160E-11
    X_U2.vlim   -2.227E-07
    X_U2.vlp    -4.000E-11
    X_U2.vln    -4.000E-11

    TOTAL POWER DISSIPATION   1.77E-01  WATTS


**** 04/02/19 15:18:16 ****** PSpice 17.2.0 (March 2016) ****** ID# 0 ********

 ** Profile: "SCHEMATIC1-Monte"  [ E:\Circuits-I\Lab4\Lab4-PSpiceFiles\SCHEMATIC1\Monte.sim ] 


 ****     INITIAL TRANSIENT SOLUTION       TEMPERATURE =   27.000 DEG C

                      MONTE CARLO PASS 30

******************************************************************************



 NODE   VOLTAGE     NODE   VOLTAGE     NODE   VOLTAGE     NODE   VOLTAGE


(N00580) 19.26E-06 (N00878)    0.0000 (VININV) 312.2E-06 (VINNON) 19.25E-06     

(X_U1.6)-35.16E-09 (X_U1.7) 331.2E-06 (X_U1.8) 331.2E-06 (X_U1.9)    0.0000     

(X_U2.6) 80.71E-09 (X_U2.7)-839.8E-06 (X_U2.8)-839.8E-06 (X_U2.9)    0.0000     

(VOUTINV)-829.8E-06                   (X_U1.10)    -.6077                       

(X_U1.11)   19.9600                   (X_U1.12)   19.9600                       

(X_U1.13)    -.5938                   (X_U1.14)    -.5938                       

(X_U1.53)   19.0000                   (X_U1.54)  -19.0000                       

(X_U1.90) 380.9E-06                   (X_U1.91)   40.0000                       

(X_U1.92)  -40.0000                   (X_U1.99)    0.0000                       

(X_U2.10)    -.6077                   (X_U2.11)   19.9600                       

(X_U2.12)   19.9600                   (X_U2.13)    -.5938                       

(X_U2.14)    -.5938                   (X_U2.53)   19.0000                       

(X_U2.54)  -19.0000                   (X_U2.90)-200.1E-06                       

(X_U2.91)   40.0000                   (X_U2.92)  -40.0000                       

(X_U2.99)    0.0000                   (NEGSUPPLY)  -20.0000                     

(POSSUPPLY)   20.0000                 




    VOLTAGE SOURCE CURRENTS
    NAME         CURRENT

    V_V1        -4.435E-03
    V_V2        -4.436E-03
    V_V4        -7.972E-08
    X_U1.vb     -3.516E-13
    X_U1.vc      1.900E-11
    X_U1.ve      2.160E-11
    X_U1.vlim    3.809E-07
    X_U1.vlp    -4.000E-11
    X_U1.vln    -4.000E-11
    X_U2.vb      8.071E-13
    X_U2.vc      1.900E-11
    X_U2.ve      2.160E-11
    X_U2.vlim   -2.001E-07
    X_U2.vlp    -4.000E-11
    X_U2.vln    -4.000E-11

    TOTAL POWER DISSIPATION   1.77E-01  WATTS


**** 04/02/19 15:18:16 ****** PSpice 17.2.0 (March 2016) ****** ID# 0 ********

 ** Profile: "SCHEMATIC1-Monte"  [ E:\Circuits-I\Lab4\Lab4-PSpiceFiles\SCHEMATIC1\Monte.sim ] 


 ****     INITIAL TRANSIENT SOLUTION       TEMPERATURE =   27.000 DEG C

                      MONTE CARLO PASS 31

******************************************************************************



 NODE   VOLTAGE     NODE   VOLTAGE     NODE   VOLTAGE     NODE   VOLTAGE


(N00580) 19.26E-06 (N00878)    0.0000 (VININV) 351.0E-06 (VINNON) 19.25E-06     

(X_U1.6)-39.16E-09 (X_U1.7) 371.2E-06 (X_U1.8) 371.2E-06 (X_U1.9)    0.0000     

(X_U2.6) 82.80E-09 (X_U2.7)-859.5E-06 (X_U2.8)-859.5E-06 (X_U2.9)    0.0000     

(VOUTINV)-848.3E-06                   (X_U1.10)    -.6077                       

(X_U1.11)   19.9600                   (X_U1.12)   19.9600                       

(X_U1.13)    -.5938                   (X_U1.14)    -.5938                       

(X_U1.53)   19.0000                   (X_U1.54)  -19.0000                       

(X_U1.90) 404.4E-06                   (X_U1.91)   40.0000                       

(X_U1.92)  -40.0000                   (X_U1.99)    0.0000                       

(X_U2.10)    -.6077                   (X_U2.11)   19.9600                       

(X_U2.12)   19.9600                   (X_U2.13)    -.5938                       

(X_U2.14)    -.5938                   (X_U2.53)   19.0000                       

(X_U2.54)  -19.0000                   (X_U2.90)-223.5E-06                       

(X_U2.91)   40.0000                   (X_U2.92)  -40.0000                       

(X_U2.99)    0.0000                   (NEGSUPPLY)  -20.0000                     

(POSSUPPLY)   20.0000                 




    VOLTAGE SOURCE CURRENTS
    NAME         CURRENT

    V_V1        -4.435E-03
    V_V2        -4.436E-03
    V_V4        -7.972E-08
    X_U1.vb     -3.916E-13
    X_U1.vc      1.900E-11
    X_U1.ve      2.160E-11
    X_U1.vlim    4.044E-07
    X_U1.vlp    -4.000E-11
    X_U1.vln    -4.000E-11
    X_U2.vb      8.280E-13
    X_U2.vc      1.900E-11
    X_U2.ve      2.160E-11
    X_U2.vlim   -2.235E-07
    X_U2.vlp    -4.000E-11
    X_U2.vln    -4.000E-11

    TOTAL POWER DISSIPATION   1.77E-01  WATTS


**** 04/02/19 15:18:16 ****** PSpice 17.2.0 (March 2016) ****** ID# 0 ********

 ** Profile: "SCHEMATIC1-Monte"  [ E:\Circuits-I\Lab4\Lab4-PSpiceFiles\SCHEMATIC1\Monte.sim ] 


 ****     INITIAL TRANSIENT SOLUTION       TEMPERATURE =   27.000 DEG C

                      MONTE CARLO PASS 32

******************************************************************************



 NODE   VOLTAGE     NODE   VOLTAGE     NODE   VOLTAGE     NODE   VOLTAGE


(N00580) 19.26E-06 (N00878)    0.0000 (VININV) 290.4E-06 (VINNON) 19.25E-06     

(X_U1.6)-33.18E-09 (X_U1.7) 309.7E-06 (X_U1.8) 309.7E-06 (X_U1.9)    0.0000     

(X_U2.6) 81.61E-09 (X_U2.7)-848.5E-06 (X_U2.8)-848.5E-06 (X_U2.9)    0.0000     

(VOUTINV)-838.1E-06                   (X_U1.10)    -.6077                       

(X_U1.11)   19.9600                   (X_U1.12)   19.9600                       

(X_U1.13)    -.5938                   (X_U1.14)    -.5938                       

(X_U1.53)   19.0000                   (X_U1.54)  -19.0000                       

(X_U1.90) 386.1E-06                   (X_U1.91)   40.0000                       

(X_U1.92)  -40.0000                   (X_U1.99)    0.0000                       

(X_U2.10)    -.6077                   (X_U2.11)   19.9600                       

(X_U2.12)   19.9600                   (X_U2.13)    -.5938                       

(X_U2.14)    -.5938                   (X_U2.53)   19.0000                       

(X_U2.54)  -19.0000                   (X_U2.90)-208.1E-06                       

(X_U2.91)   40.0000                   (X_U2.92)  -40.0000                       

(X_U2.99)    0.0000                   (NEGSUPPLY)  -20.0000                     

(POSSUPPLY)   20.0000                 




    VOLTAGE SOURCE CURRENTS
    NAME         CURRENT

    V_V1        -4.435E-03
    V_V2        -4.436E-03
    V_V4        -7.972E-08
    X_U1.vb     -3.318E-13
    X_U1.vc      1.900E-11
    X_U1.ve      2.160E-11
    X_U1.vlim    3.861E-07
    X_U1.vlp    -4.000E-11
    X_U1.vln    -4.000E-11
    X_U2.vb      8.161E-13
    X_U2.vc      1.900E-11
    X_U2.ve      2.160E-11
    X_U2.vlim   -2.081E-07
    X_U2.vlp    -4.000E-11
    X_U2.vln    -4.000E-11

    TOTAL POWER DISSIPATION   1.77E-01  WATTS


**** 04/02/19 15:18:16 ****** PSpice 17.2.0 (March 2016) ****** ID# 0 ********

 ** Profile: "SCHEMATIC1-Monte"  [ E:\Circuits-I\Lab4\Lab4-PSpiceFiles\SCHEMATIC1\Monte.sim ] 


 ****     INITIAL TRANSIENT SOLUTION       TEMPERATURE =   27.000 DEG C

                      MONTE CARLO PASS 33

******************************************************************************



 NODE   VOLTAGE     NODE   VOLTAGE     NODE   VOLTAGE     NODE   VOLTAGE


(N00580) 19.26E-06 (N00878)    0.0000 (VININV) 336.6E-06 (VINNON) 19.25E-06     

(X_U1.6)-38.06E-09 (X_U1.7) 357.7E-06 (X_U1.8) 357.7E-06 (X_U1.9)    0.0000     

(X_U2.6) 94.92E-09 (X_U2.7)-986.2E-06 (X_U2.8)-986.2E-06 (X_U2.9)    0.0000     

(VOUTINV)-974.1E-06                   (X_U1.10)    -.6077                       

(X_U1.11)   19.9600                   (X_U1.12)   19.9600                       

(X_U1.13)    -.5938                   (X_U1.14)    -.5938                       

(X_U1.53)   19.0000                   (X_U1.54)  -19.0000                       

(X_U1.90) 422.5E-06                   (X_U1.91)   40.0000                       

(X_U1.92)  -40.0000                   (X_U1.99)    0.0000                       

(X_U2.10)    -.6077                   (X_U2.11)   19.9600                       

(X_U2.12)   19.9600                   (X_U2.13)    -.5938                       

(X_U2.14)    -.5938                   (X_U2.53)   19.0000                       

(X_U2.54)  -19.0000                   (X_U2.90)-242.6E-06                       

(X_U2.91)   40.0000                   (X_U2.92)  -40.0000                       

(X_U2.99)    0.0000                   (NEGSUPPLY)  -20.0000                     

(POSSUPPLY)   20.0000                 




    VOLTAGE SOURCE CURRENTS
    NAME         CURRENT

    V_V1        -4.435E-03
    V_V2        -4.436E-03
    V_V4        -7.972E-08
    X_U1.vb     -3.806E-13
    X_U1.vc      1.900E-11
    X_U1.ve      2.160E-11
    X_U1.vlim    4.225E-07
    X_U1.vlp    -4.000E-11
    X_U1.vln    -4.000E-11
    X_U2.vb      9.492E-13
    X_U2.vc      1.900E-11
    X_U2.ve      2.160E-11
    X_U2.vlim   -2.426E-07
    X_U2.vlp    -4.000E-11
    X_U2.vln    -4.000E-11

    TOTAL POWER DISSIPATION   1.77E-01  WATTS


**** 04/02/19 15:18:16 ****** PSpice 17.2.0 (March 2016) ****** ID# 0 ********

 ** Profile: "SCHEMATIC1-Monte"  [ E:\Circuits-I\Lab4\Lab4-PSpiceFiles\SCHEMATIC1\Monte.sim ] 


 ****     INITIAL TRANSIENT SOLUTION       TEMPERATURE =   27.000 DEG C

                      MONTE CARLO PASS 34

******************************************************************************



 NODE   VOLTAGE     NODE   VOLTAGE     NODE   VOLTAGE     NODE   VOLTAGE


(N00580) 19.25E-06 (N00878)    0.0000 (VININV) 298.8E-06 (VINNON) 19.25E-06     

(X_U1.6)-33.72E-09 (X_U1.7) 317.2E-06 (X_U1.8) 317.2E-06 (X_U1.9)    0.0000     

(X_U2.6) 66.97E-09 (X_U2.7)-695.1E-06 (X_U2.8)-695.1E-06 (X_U2.9)    0.0000     

(VOUTINV)-685.6E-06                   (X_U1.10)    -.6077                       

(X_U1.11)   19.9600                   (X_U1.12)   19.9600                       

(X_U1.13)    -.5938                   (X_U1.14)    -.5938                       

(X_U1.53)   19.0000                   (X_U1.54)  -19.0000                       

(X_U1.90) 368.3E-06                   (X_U1.91)   40.0000                       

(X_U1.92)  -40.0000                   (X_U1.99)    0.0000                       

(X_U2.10)    -.6077                   (X_U2.11)   19.9600                       

(X_U2.12)   19.9600                   (X_U2.13)    -.5938                       

(X_U2.14)    -.5938                   (X_U2.53)   19.0000                       

(X_U2.54)  -19.0000                   (X_U2.90)-189.1E-06                       

(X_U2.91)   40.0000                   (X_U2.92)  -40.0000                       

(X_U2.99)    0.0000                   (NEGSUPPLY)  -20.0000                     

(POSSUPPLY)   20.0000                 




    VOLTAGE SOURCE CURRENTS
    NAME         CURRENT

    V_V1        -4.435E-03
    V_V2        -4.436E-03
    V_V4        -7.972E-08
    X_U1.vb     -3.372E-13
    X_U1.vc      1.900E-11
    X_U1.ve      2.160E-11
    X_U1.vlim    3.683E-07
    X_U1.vlp    -4.000E-11
    X_U1.vln    -4.000E-11
    X_U2.vb      6.697E-13
    X_U2.vc      1.900E-11
    X_U2.ve      2.160E-11
    X_U2.vlim   -1.891E-07
    X_U2.vlp    -4.000E-11
    X_U2.vln    -4.000E-11

    TOTAL POWER DISSIPATION   1.77E-01  WATTS


[...]
    V_V2        -4.436E-03
    V_V4        -7.972E-08
    X_U1.vb     -3.410E-13
    X_U1.vc      1.900E-11
    X_U1.ve      2.160E-11
    X_U1.vlim    4.001E-07
    X_U1.vlp    -4.000E-11
    X_U1.vln    -4.000E-11
    X_U2.vb      8.623E-13
    X_U2.vc      1.900E-11
    X_U2.ve      2.160E-11
    X_U2.vlim   -2.216E-07
    X_U2.vlp    -4.000E-11
    X_U2.vln    -4.000E-11

    TOTAL POWER DISSIPATION   1.77E-01  WATTS


**** 04/02/19 15:18:16 ****** PSpice 17.2.0 (March 2016) ****** ID# 0 ********

 ** Profile: "SCHEMATIC1-Monte"  [ E:\Circuits-I\Lab4\Lab4-PSpiceFiles\SCHEMATIC1\Monte.sim ] 


 ****     INITIAL TRANSIENT SOLUTION       TEMPERATURE =   27.000 DEG C

                      MONTE CARLO PASS 97

******************************************************************************



 NODE   VOLTAGE     NODE   VOLTAGE     NODE   VOLTAGE     NODE   VOLTAGE


(N00580) 19.26E-06 (N00878)    0.0000 (VININV) 311.7E-06 (VINNON) 19.25E-06     

(X_U1.6)-35.45E-09 (X_U1.7) 331.9E-06 (X_U1.8) 331.9E-06 (X_U1.9)    0.0000     

(X_U2.6) 91.82E-09 (X_U2.7)-955.3E-06 (X_U2.8)-955.3E-06 (X_U2.9)    0.0000     

(VOUTINV)-944.1E-06                   (X_U1.10)    -.6077                       

(X_U1.11)   19.9600                   (X_U1.12)   19.9600                       

(X_U1.13)    -.5938                   (X_U1.14)    -.5938                       

(X_U1.53)   19.0000                   (X_U1.54)  -19.0000                       

(X_U1.90) 403.9E-06                   (X_U1.91)   40.0000                       

(X_U1.92)  -40.0000                   (X_U1.99)    0.0000                       

(X_U2.10)    -.6077                   (X_U2.11)   19.9600                       

(X_U2.12)   19.9600                   (X_U2.13)    -.5938                       

(X_U2.14)    -.5938                   (X_U2.53)   19.0000                       

(X_U2.54)  -19.0000                   (X_U2.90)-223.2E-06                       

(X_U2.91)   40.0000                   (X_U2.92)  -40.0000                       

(X_U2.99)    0.0000                   (NEGSUPPLY)  -20.0000                     

(POSSUPPLY)   20.0000                 




    VOLTAGE SOURCE CURRENTS
    NAME         CURRENT

    V_V1        -4.435E-03
    V_V2        -4.436E-03
    V_V4        -7.972E-08
    X_U1.vb     -3.545E-13
    X_U1.vc      1.900E-11
    X_U1.ve      2.160E-11
    X_U1.vlim    4.039E-07
    X_U1.vlp    -4.000E-11
    X_U1.vln    -4.000E-11
    X_U2.vb      9.182E-13
    X_U2.vc      1.900E-11
    X_U2.ve      2.160E-11
    X_U2.vlim   -2.232E-07
    X_U2.vlp    -4.000E-11
    X_U2.vln    -4.000E-11

    TOTAL POWER DISSIPATION   1.77E-01  WATTS


**** 04/02/19 15:18:16 ****** PSpice 17.2.0 (March 2016) ****** ID# 0 ********

 ** Profile: "SCHEMATIC1-Monte"  [ E:\Circuits-I\Lab4\Lab4-PSpiceFiles\SCHEMATIC1\Monte.sim ] 


 ****     INITIAL TRANSIENT SOLUTION       TEMPERATURE =   27.000 DEG C

                      MONTE CARLO PASS 98

******************************************************************************



 NODE   VOLTAGE     NODE   VOLTAGE     NODE   VOLTAGE     NODE   VOLTAGE


(N00580) 19.26E-06 (N00878)    0.0000 (VININV) 283.5E-06 (VINNON) 19.25E-06     

(X_U1.6)-32.04E-09 (X_U1.7) 301.1E-06 (X_U1.8) 301.1E-06 (X_U1.9)    0.0000     

(X_U2.6) 70.16E-09 (X_U2.7)-730.4E-06 (X_U2.8)-730.4E-06 (X_U2.9)    0.0000     

(VOUTINV)-721.7E-06                   (X_U1.10)    -.6077                       

(X_U1.11)   19.9600                   (X_U1.12)   19.9600                       

(X_U1.13)    -.5938                   (X_U1.14)    -.5938                       

(X_U1.53)   19.0000                   (X_U1.54)  -19.0000                       

(X_U1.90) 352.0E-06                   (X_U1.91)   40.0000                       

(X_U1.92)  -40.0000                   (X_U1.99)    0.0000                       

(X_U2.10)    -.6077                   (X_U2.11)   19.9600                       

(X_U2.12)   19.9600                   (X_U2.13)    -.5938                       

(X_U2.14)    -.5938                   (X_U2.53)   19.0000                       

(X_U2.54)  -19.0000                   (X_U2.90)-174.4E-06                       

(X_U2.91)   40.0000                   (X_U2.92)  -40.0000                       

(X_U2.99)    0.0000                   (NEGSUPPLY)  -20.0000                     

(POSSUPPLY)   20.0000                 




    VOLTAGE SOURCE CURRENTS
    NAME         CURRENT

    V_V1        -4.435E-03
    V_V2        -4.436E-03
    V_V4        -7.972E-08
    X_U1.vb     -3.204E-13
    X_U1.vc      1.900E-11
    X_U1.ve      2.160E-11
    X_U1.vlim    3.520E-07
    X_U1.vlp    -4.000E-11
    X_U1.vln    -4.000E-11
    X_U2.vb      7.016E-13
    X_U2.vc      1.900E-11
    X_U2.ve      2.160E-11
    X_U2.vlim   -1.744E-07
    X_U2.vlp    -4.000E-11
    X_U2.vln    -4.000E-11

    TOTAL POWER DISSIPATION   1.77E-01  WATTS


**** 04/02/19 15:18:16 ****** PSpice 17.2.0 (March 2016) ****** ID# 0 ********

 ** Profile: "SCHEMATIC1-Monte"  [ E:\Circuits-I\Lab4\Lab4-PSpiceFiles\SCHEMATIC1\Monte.sim ] 


 ****     INITIAL TRANSIENT SOLUTION       TEMPERATURE =   27.000 DEG C

                      MONTE CARLO PASS 99

******************************************************************************



 NODE   VOLTAGE     NODE   VOLTAGE     NODE   VOLTAGE     NODE   VOLTAGE


(N00580) 19.26E-06 (N00878)    0.0000 (VININV) 347.2E-06 (VINNON) 19.25E-06     

(X_U1.6)-39.17E-09 (X_U1.7) 368.7E-06 (X_U1.8) 368.7E-06 (X_U1.9)    0.0000     

(X_U2.6) 88.19E-09 (X_U2.7)-914.0E-06 (X_U2.8)-914.0E-06 (X_U2.9)    0.0000     

(VOUTINV)-901.5E-06                   (X_U1.10)    -.6077                       

(X_U1.11)   19.9600                   (X_U1.12)   19.9600                       

(X_U1.13)    -.5938                   (X_U1.14)    -.5938                       

(X_U1.53)   19.0000                   (X_U1.54)  -19.0000                       

(X_U1.90) 429.9E-06                   (X_U1.91)   40.0000                       

(X_U1.92)  -40.0000                   (X_U1.99)    0.0000                       

(X_U2.10)    -.6077                   (X_U2.11)   19.9600                       

(X_U2.12)   19.9600                   (X_U2.13)    -.5938                       

(X_U2.14)    -.5938                   (X_U2.53)   19.0000                       

(X_U2.54)  -19.0000                   (X_U2.90)-250.3E-06                       

(X_U2.91)   40.0000                   (X_U2.92)  -40.0000                       

(X_U2.99)    0.0000                   (NEGSUPPLY)  -20.0000                     

(POSSUPPLY)   20.0000                 




    VOLTAGE SOURCE CURRENTS
    NAME         CURRENT

    V_V1        -4.435E-03
    V_V2        -4.436E-03
    V_V4        -7.972E-08
    X_U1.vb     -3.917E-13
    X_U1.vc      1.900E-11
    X_U1.ve      2.160E-11
    X_U1.vlim    4.299E-07
    X_U1.vlp    -4.000E-11
    X_U1.vln    -4.000E-11
    X_U2.vb      8.819E-13
    X_U2.vc      1.900E-11
    X_U2.ve      2.160E-11
    X_U2.vlim   -2.503E-07
    X_U2.vlp    -4.000E-11
    X_U2.vln    -4.000E-11

    TOTAL POWER DISSIPATION   1.77E-01  WATTS


**** 04/02/19 15:18:16 ****** PSpice 17.2.0 (March 2016) ****** ID# 0 ********

 ** Profile: "SCHEMATIC1-Monte"  [ E:\Circuits-I\Lab4\Lab4-PSpiceFiles\SCHEMATIC1\Monte.sim ] 


 ****     INITIAL TRANSIENT SOLUTION       TEMPERATURE =   27.000 DEG C

                      MONTE CARLO PASS 100

******************************************************************************



 NODE   VOLTAGE     NODE   VOLTAGE     NODE   VOLTAGE     NODE   VOLTAGE


(N00580) 19.25E-06 (N00878)    0.0000 (VININV) 286.9E-06 (VINNON) 19.25E-06     

(X_U1.6)-32.53E-09 (X_U1.7) 305.1E-06 (X_U1.8) 305.1E-06 (X_U1.9)    0.0000     

(X_U2.6) 65.72E-09 (X_U2.7)-682.3E-06 (X_U2.8)-682.3E-06 (X_U2.9)    0.0000     

(VOUTINV)-673.1E-06                   (X_U1.10)    -.6077                       

(X_U1.11)   19.9600                   (X_U1.12)   19.9600                       

(X_U1.13)    -.5938                   (X_U1.14)    -.5938                       

(X_U1.53)   19.0000                   (X_U1.54)  -19.0000                       

(X_U1.90) 362.8E-06                   (X_U1.91)   40.0000                       

(X_U1.92)  -40.0000                   (X_U1.99)    0.0000                       

(X_U2.10)    -.6077                   (X_U2.11)   19.9600                       

(X_U2.12)   19.9600                   (X_U2.13)    -.5938                       

(X_U2.14)    -.5938                   (X_U2.53)   19.0000                       

(X_U2.54)  -19.0000                   (X_U2.90)-184.0E-06                       

(X_U2.91)   40.0000                   (X_U2.92)  -40.0000                       

(X_U2.99)    0.0000                   (NEGSUPPLY)  -20.0000                     

(POSSUPPLY)   20.0000                 




    VOLTAGE SOURCE CURRENTS
    NAME         CURRENT

    V_V1        -4.435E-03
    V_V2        -4.436E-03
    V_V4        -7.972E-08
    X_U1.vb     -3.253E-13
    X_U1.vc      1.900E-11
    X_U1.ve      2.160E-11
    X_U1.vlim    3.628E-07
    X_U1.vlp    -4.000E-11
    X_U1.vln    -4.000E-11
    X_U2.vb      6.572E-13
    X_U2.vc      1.900E-11
    X_U2.ve      2.160E-11
    X_U2.vlim   -1.840E-07
    X_U2.vlp    -4.000E-11
    X_U2.vln    -4.000E-11

    TOTAL POWER DISSIPATION   1.77E-01  WATTS


**** 04/02/19 15:18:16 ****** PSpice 17.2.0 (March 2016) ****** ID# 0 ********

 ** Profile: "SCHEMATIC1-Monte"  [ E:\Circuits-I\Lab4\Lab4-PSpiceFiles\SCHEMATIC1\Monte.sim ] 


 ****     SORTED DEVIATIONS OF V(VOUTINV)  TEMPERATURE =   27.000 DEG C

                      MONTE CARLO SUMMARY

******************************************************************************





 RUN                    MAXIMUM VALUE

Pass    9               9.611  at T =  742.4900E-06
                        ( 120.22% of Nominal)

Pass   61               9.6052 at T =    1.7610E-03
                        ( 120.77% of Nominal)

Pass   63               9.5428 at T =    1.7616E-03
                        ( 119.98% of Nominal)

Pass   87               9.4902 at T =  742.3800E-06
                        ( 118.71% of Nominal)

Pass   97               9.3568 at T =    1.7616E-03
                        ( 117.64% of Nominal)

Pass   81               9.3197 at T =  743.2200E-06
                        ( 116.58% of Nominal)

Pass   70               9.2914 at T =  742.0700E-06
                        ( 116.22% of Nominal)

Pass   92               9.2662 at T =    1.7616E-03
                        ( 116.5 % of Nominal)

Pass   67               9.2646 at T =  742.7800E-06
                        ( 115.89% of Nominal)

Pass   69               9.213  at T =    1.7487E-03
                        ( 119.6 % of Nominal)

Pass   58               9.1146 at T =  744.4200E-06
                        ( 114.01% of Nominal)

Pass   48               9.1073 at T =  743.4400E-06
                        ( 113.92% of Nominal)

Pass   64               9.0576 at T =  744.6400E-06
                        ( 113.3 % of Nominal)

Pass   33               9.0387 at T =  742.3500E-06
                        ( 113.06% of Nominal)

Pass   71               9.0324 at T =  742.6300E-06
                        ( 112.98% of Nominal)

Pass   76               9.0069 at T =  744.6100E-06
                        ( 112.67% of Nominal)

Pass   22               8.9249 at T =  742.8600E-06
                        ( 111.64% of Nominal)

Pass   93               8.8761 at T =  744.0800E-06
                        ( 111.03% of Nominal)

Pass    6               8.8272 at T =  743.6300E-06
                        ( 110.42% of Nominal)

Pass   43               8.7284 at T =  744.6800E-06
                        ( 109.18% of Nominal)

Pass    5               8.7185 at T =  743.6800E-06
                        ( 109.06% of Nominal)

Pass   25               8.6466 at T =  743.8300E-06
                        ( 108.16% of Nominal)

Pass   35               8.6232 at T =  744.8500E-06
                        ( 107.87% of Nominal)

Pass   85               8.6037 at T =  746.1800E-06
                        ( 107.62% of Nominal)

Pass   30               8.5137 at T =  744.1300E-06
                        ( 106.5 % of Nominal)

Pass   42               8.5076 at T =  746.7900E-06
                        ( 106.42% of Nominal)

Pass   57               8.5007 at T =  745.6200E-06
                        ( 106.33% of Nominal)

Pass   39               8.4946 at T =  745.8400E-06
                        ( 106.26% of Nominal)

Pass   94               8.4848 at T =  743.7800E-06
                        ( 106.13% of Nominal)

Pass   51               8.4669 at T =  745.7000E-06
                        ( 105.91% of Nominal)

Pass   90               8.4595 at T =  744.9600E-06
                        ( 105.82% of Nominal)

Pass   17               8.3937 at T =  744.7500E-06
                        ( 105   % of Nominal)

Pass   88               8.3902 at T =  747.2300E-06
                        ( 104.95% of Nominal)

Pass   56               8.3843 at T =  744.8700E-06
                        ( 104.88% of Nominal)

Pass   12               8.3637 at T =  744.7800E-06
                        ( 104.62% of Nominal)

Pass   96               8.36   at T =  747.6600E-06
                        ( 104.57% of Nominal)

Pass   23               8.3519 at T =  745.0700E-06
                        ( 104.47% of Nominal)

Pass   13               8.3004 at T =  746.4100E-06
                        ( 103.83% of Nominal)

Pass   78               8.2826 at T =  745.3600E-06
                        ( 103.61% of Nominal)

Pass   80               8.277  at T =  746.1000E-06
                        ( 103.53% of Nominal)

Pass    2               8.2707 at T =  747.7600E-06
                        ( 103.46% of Nominal)

Pass    8               8.2685 at T =  746.4700E-06
                        ( 103.43% of Nominal)

Pass   29               8.2296 at T =  747.9800E-06
                        ( 102.94% of Nominal)

Pass   31               8.2187 at T =  744.3600E-06
                        ( 102.81% of Nominal)

Pass   21               8.2109 at T =  745.8000E-06
                        ( 102.71% of Nominal)

Pass   66               8.2029 at T =  747.0900E-06
                        ( 102.61% of Nominal)

Pass   99               8.1975 at T =  745.3000E-06
                        ( 102.54% of Nominal)

Pass   19               8.1456 at T =  747.0000E-06
                        ( 101.89% of Nominal)

Pass   54               8.0527 at T =  748.2200E-06
                        ( 100.73% of Nominal)

Pass   15               8.0187 at T =  747.6200E-06
                        ( 100.3 % of Nominal)

Pass   46               8.0116 at T =  745.8100E-06
                        ( 100.22% of Nominal)

Pass   32               7.9879 at T =  750.4600E-06
                        (  99.919% of Nominal)

Pass   28               7.9521 at T =  750.0300E-06
                        (  99.471% of Nominal)

Pass   18               7.9143 at T =  747.1400E-06
                        (  98.999% of Nominal)

Pass   91               7.8975 at T =  750.2900E-06
                        (  98.788% of Nominal)

Pass   65               7.8745 at T =  747.8700E-06
                        (  98.5  % of Nominal)

Pass   55               7.8621 at T =  746.9300E-06
                        (  98.345% of Nominal)

Pass   50               7.7788 at T =  748.9800E-06
                        (  97.303% of Nominal)

Pass    4               7.7419 at T =  747.6300E-06
                        (  96.841% of Nominal)

Pass   41               7.724  at T =  749.2400E-06
                        (  96.618% of Nominal)

Pass   52               7.6248 at T =  752.0900E-06
                        (  95.377% of Nominal)

Pass   20               7.623  at T =  752.9200E-06
                        (  95.354% of Nominal)

Pass   86               7.6171 at T =  748.8800E-06
                        (  95.281% of Nominal)

Pass   95               7.5534 at T =  751.4000E-06
                        (  94.484% of Nominal)

Pass   47               7.525  at T =  751.8300E-06
                        (  94.128% of Nominal)

Pass   59               7.4909 at T =  753.7900E-06
                        (  93.703% of Nominal)

Pass   36               7.4792 at T =  751.1200E-06
                        (  93.555% of Nominal)

Pass   49               7.4696 at T =  751.3100E-06
                        (  93.435% of Nominal)

Pass   45               7.4263 at T =  749.5000E-06
                        (  92.893% of Nominal)

Pass   44               7.4129 at T =  751.9100E-06
                        (  92.727% of Nominal)

Pass   82               7.4125 at T =  752.2200E-06
                        (  92.721% of Nominal)

Pass   14               7.3605 at T =  750.5400E-06
                        (  92.071% of Nominal)

Pass   37               7.3414 at T =  752.9900E-06
                        (  91.832% of Nominal)

Pass   62               7.3137 at T =  753.7800E-06
                        (  91.486% of Nominal)

Pass   83               7.3055 at T =  755.1500E-06
                        (  91.383% of Nominal)

Pass   73               7.2916 at T =  754.4900E-06
                        (  91.209% of Nominal)

Pass   98               7.2252 at T =  756.1000E-06
                        (  90.378% of Nominal)

Pass   38               7.1902 at T =  753.2500E-06
                        (  89.94 % of Nominal)

Pass   11               7.1779 at T =  753.2200E-06
                        (  89.786% of Nominal)

Pass   75               7.1725 at T =  755.9000E-06
                        (  89.72 % of Nominal)

Pass   77               7.1706 at T =  753.5300E-06
                        (  89.696% of Nominal)

Pass   24               7.1382 at T =  754.7700E-06
                        (  89.29 % of Nominal)

Pass   84               7.1172 at T =  756.9400E-06
                        (  89.028% of Nominal)

Pass   89               7.1012 at T =  755.5700E-06
                        (  88.828% of Nominal)

Pass   53               7.0562 at T =  755.2700E-06
                        (  88.265% of Nominal)

Pass   26               7.0112 at T =  758.3900E-06
                        (  87.701% of Nominal)

Pass   34               6.9433 at T =  755.1900E-06
                        (  86.852% of Nominal)

Pass   16               6.9353 at T =  754.9200E-06
                        (  86.752% of Nominal)

Pass   27               6.9349 at T =  755.7000E-06
                        (  86.747% of Nominal)

Pass  100               6.8637 at T =  757.2500E-06
                        (  85.856% of Nominal)

Pass   74               6.8281 at T =  756.2100E-06
                        (  85.412% of Nominal)

Pass    7               6.6396 at T =  760.7100E-06
                        (  83.054% of Nominal)

Pass   10               6.5464 at T =    2.7424E-03
                        (  82.767% of Nominal)

Pass    3               6.524  at T =  759.0300E-06
                        (  81.607% of Nominal)

Pass   60               6.5176 at T =  760.8900E-06
                        (  81.527% of Nominal)

Pass   72               6.3413 at T =    2.7443E-03
                        (  80.173% of Nominal)

Pass   68               6.3029 at T =    2.7451E-03
                        (  79.688% of Nominal)

Pass   40               6.002  at T =    2.7498E-03
                        (  75.883% of Nominal)

Pass   79               5.9315 at T =    2.7504E-03
                        (  74.992% of Nominal)



          JOB CONCLUDED

**** 04/02/19 15:18:16 ****** PSpice 17.2.0 (March 2016) ****** ID# 0 ********

 ** Profile: "SCHEMATIC1-Monte"  [ E:\Circuits-I\Lab4\Lab4-PSpiceFiles\SCHEMATIC1\Monte.sim ] 


 ****     JOB STATISTICS SUMMARY


******************************************************************************



  Total job time (using Solver 1)   =       15.50
