
**** 04/02/19 15:06:59 ****** PSpice 17.2.0 (March 2016) ****** ID# 0 ********

 ** Profile: "SCHEMATIC1-Monte"  [ E:\Circuits-I\Lab4\Lab4-PSpiceFiles\SCHEMATIC1\Monte.sim ] 


 ****     CIRCUIT DESCRIPTION


******************************************************************************




** Creating circuit file "Monte.cir" 
** WARNING: THIS AUTOMATICALLY GENERATED FILE MAY BE OVERWRITTEN BY SUBSEQUENT SIMULATIONS

*Libraries: 
* Profile Libraries :
* Local Libraries :
* From [PSPICE NETLIST] section of C:\Users\cel8473\cdssetup\OrCAD_PSpice\17.2.0\PSpice.ini file:
.lib "nom.lib" 

*Analysis directives: 
.TRAN  0 1000ns 0 
.MC 100 TRAN VoutInv MAX OUTPUT ALL SEED=256 
---------------------$
ERROR(ORPSIM-16295): Invalid Expression: Specify either current(I) or voltage(V) or digital(D).
.OPTIONS ADVCONV
.PROBE64 V(alias(*)) I(alias(*)) W(alias(*)) D(alias(*)) NOISE(alias(*)) 
.INC "..\SCHEMATIC1.net" 



**** INCLUDING SCHEMATIC1.net ****
* source LAB4
V_V1         POSSUPPLY 0 {Vsupply}
V_V2         0 NEGSUPPLY {Vsupply}
X_U1         N00878 VINNON POSSUPPLY NEGSUPPLY VININV uA741
R_Rin         0 VINNON R_Rin {Rin} TC=0,0 
.model        R_Rin RES R=1 DEV=10% TC1=0 TC2=0
R_RfNonInvert         VINNON VININV R_RfNonInvert {RfNoninverting} TC=0,0 
.model        R_RfNonInvert RES R=1 DEV=10% TC1=0 TC2=0
R_Rin1         VININV N00580 R_Rin1 {Rin} TC=0,0 
.model        R_Rin1 RES R=1 DEV=10% TC1=0 TC2=0
X_U2         0 N00580 POSSUPPLY NEGSUPPLY VOUTINV uA741
R_RfInvert         N00580 VOUTINV R_RfInvert {RfInverting} TC=0,0 
.model        R_RfInvert RES R=1 DEV=10% TC1=0 TC2=0
V_V4         N00878 0  
+SIN 0 0.5 {Freq} 0 0 0
.PARAM  vsupply=20 freq=1k rfinverting=4k rfnoninverting=3k rin=1k

**** RESUMING Monte.cir ****
.END
