
**** 02/05/19 14:43:10 ****** PSpice 17.2.0 (March 2016) ****** ID# 0 ********

 ** Profile: "SCHEMATIC1-MonteCarlo"  [ E:\Circuits-I\Larson_Lab1-PSpiceFiles\SCHEMATIC1\MonteCarlo.sim ] 


 ****     CIRCUIT DESCRIPTION


******************************************************************************




** Creating circuit file "MonteCarlo.cir" 
** WARNING: THIS AUTOMATICALLY GENERATED FILE MAY BE OVERWRITTEN BY SUBSEQUENT SIMULATIONS

*Libraries: 
* Profile Libraries :
* Local Libraries :
* From [PSPICE NETLIST] section of C:\Users\cel8473\cdssetup\OrCAD_PSpice\17.2.0\PSpice.ini file:
.lib "nom.lib" 

*Analysis directives: 
.TRAN  0 1000ns 0 
.MC 1001 TRAN V([VB]) MAX OUTPUT ALL SEED=256 
.OPTIONS ADVCONV
.PROBE64 V(alias(*)) I(alias(*)) W(alias(*)) D(alias(*)) NOISE(alias(*)) 
.INC "..\SCHEMATIC1.net" 



**** INCLUDING SCHEMATIC1.net ****
* source LARSON_LAB1
R_R1         N00187 VA R_R1 5.6k TC=0,0 
.model        R_R1 RES R=1 DEV=10% TC1=0 TC2=0
R_R2         VA VB R_R2 5.6k TC=0,0 
.model        R_R2 RES R=1 DEV=10% TC1=0 TC2=0
V_V1         N00187 0 5Vdc
R_RL         0 VB R_RL 1k TC=0,0 
.model        R_RL RES R=1 DEV=10% TC1=0 TC2=0

**** RESUMING MonteCarlo.cir ****
.END

**** 02/05/19 14:43:10 ****** PSpice 17.2.0 (March 2016) ****** ID# 0 ********

 ** Profile: "SCHEMATIC1-MonteCarlo"  [ E:\Circuits-I\Larson_Lab1-PSpiceFiles\SCHEMATIC1\MonteCarlo.sim ] 


 ****     Resistor MODEL PARAMETERS


******************************************************************************




               R_R1            R_R2            R_RL            
           R    1               1               1            


**** 02/05/19 14:43:10 ****** PSpice 17.2.0 (March 2016) ****** ID# 0 ********

 ** Profile: "SCHEMATIC1-MonteCarlo"  [ E:\Circuits-I\Larson_Lab1-PSpiceFiles\SCHEMATIC1\MonteCarlo.sim ] 


 ****     INITIAL TRANSIENT SOLUTION       TEMPERATURE =   27.000 DEG C

                      MONTE CARLO NOMINAL

******************************************************************************



 NODE   VOLTAGE     NODE   VOLTAGE     NODE   VOLTAGE     NODE   VOLTAGE


(   VA)    2.7049  (   VB)     .4098  (N00187)    5.0000 




    VOLTAGE SOURCE CURRENTS
    NAME         CURRENT

    V_V1        -4.098E-04

    TOTAL POWER DISSIPATION   2.05E-03  WATTS


**** 02/05/19 14:43:10 ****** PSpice 17.2.0 (March 2016) ****** ID# 0 ********

 ** Profile: "SCHEMATIC1-MonteCarlo"  [ E:\Circuits-I\Larson_Lab1-PSpiceFiles\SCHEMATIC1\MonteCarlo.sim ] 


 ****     INITIAL TRANSIENT SOLUTION       TEMPERATURE =   27.000 DEG C

                      MONTE CARLO PASS 2

******************************************************************************



 NODE   VOLTAGE     NODE   VOLTAGE     NODE   VOLTAGE     NODE   VOLTAGE


(   VA)    2.6536  (   VB)     .3946  (N00187)    5.0000 




    VOLTAGE SOURCE CURRENTS
    NAME         CURRENT

    V_V1        -3.901E-04

    TOTAL POWER DISSIPATION   1.95E-03  WATTS


**** 02/05/19 14:43:10 ****** PSpice 17.2.0 (March 2016) ****** ID# 0 ********

 ** Profile: "SCHEMATIC1-MonteCarlo"  [ E:\Circuits-I\Larson_Lab1-PSpiceFiles\SCHEMATIC1\MonteCarlo.sim ] 


 ****     INITIAL TRANSIENT SOLUTION       TEMPERATURE =   27.000 DEG C

                      MONTE CARLO PASS 3

******************************************************************************



 NODE   VOLTAGE     NODE   VOLTAGE     NODE   VOLTAGE     NODE   VOLTAGE


(   VA)    2.6791  (   VB)     .4670  (N00187)    5.0000 




    VOLTAGE SOURCE CURRENTS
    NAME         CURRENT

    V_V1        -4.254E-04

    TOTAL POWER DISSIPATION   2.13E-03  WATTS


**** 02/05/19 14:43:10 ****** PSpice 17.2.0 (March 2016) ****** ID# 0 ********

 ** Profile: "SCHEMATIC1-MonteCarlo"  [ E:\Circuits-I\Larson_Lab1-PSpiceFiles\SCHEMATIC1\MonteCarlo.sim ] 


 ****     INITIAL TRANSIENT SOLUTION       TEMPERATURE =   27.000 DEG C

                      MONTE CARLO PASS 4

******************************************************************************



 NODE   VOLTAGE     NODE   VOLTAGE     NODE   VOLTAGE     NODE   VOLTAGE


(   VA)    2.8315  (   VB)     .4373  (N00187)    5.0000 




    VOLTAGE SOURCE CURRENTS
    NAME         CURRENT

    V_V1        -4.036E-04

    TOTAL POWER DISSIPATION   2.02E-03  WATTS


**** 02/05/19 14:43:10 ****** PSpice 17.2.0 (March 2016) ****** ID# 0 ********

 ** Profile: "SCHEMATIC1-MonteCarlo"  [ E:\Circuits-I\Larson_Lab1-PSpiceFiles\SCHEMATIC1\MonteCarlo.sim ] 


 ****     INITIAL TRANSIENT SOLUTION       TEMPERATURE =   27.000 DEG C

                      MONTE CARLO PASS 5

******************************************************************************



 NODE   VOLTAGE     NODE   VOLTAGE     NODE   VOLTAGE     NODE   VOLTAGE


(   VA)    2.7954  (   VB)     .3972  (N00187)    5.0000 




    VOLTAGE SOURCE CURRENTS
    NAME         CURRENT

    V_V1        -4.240E-04

    TOTAL POWER DISSIPATION   2.12E-03  WATTS


**** 02/05/19 14:43:10 ****** PSpice 17.2.0 (March 2016) ****** ID# 0 ********

 ** Profile: "SCHEMATIC1-MonteCarlo"  [ E:\Circuits-I\Larson_Lab1-PSpiceFiles\SCHEMATIC1\MonteCarlo.sim ] 


 ****     INITIAL TRANSIENT SOLUTION       TEMPERATURE =   27.000 DEG C

                      MONTE CARLO PASS 6

******************************************************************************



 NODE   VOLTAGE     NODE   VOLTAGE     NODE   VOLTAGE     NODE   VOLTAGE


(   VA)    2.7552  (   VB)     .4029  (N00187)    5.0000 




    VOLTAGE SOURCE CURRENTS
    NAME         CURRENT

    V_V1        -4.394E-04

    TOTAL POWER DISSIPATION   2.20E-03  WATTS


**** 02/05/19 14:43:10 ****** PSpice 17.2.0 (March 2016) ****** ID# 0 ********

 ** Profile: "SCHEMATIC1-MonteCarlo"  [ E:\Circuits-I\Larson_Lab1-PSpiceFiles\SCHEMATIC1\MonteCarlo.sim ] 


 ****     INITIAL TRANSIENT SOLUTION       TEMPERATURE =   27.000 DEG C

                      MONTE CARLO PASS 7

******************************************************************************



 NODE   VOLTAGE     NODE   VOLTAGE     NODE   VOLTAGE     NODE   VOLTAGE


(   VA)    2.5608  (   VB)     .4385  (N00187)    5.0000 




    VOLTAGE SOURCE CURRENTS
    NAME         CURRENT

    V_V1        -4.080E-04

    TOTAL POWER DISSIPATION   2.04E-03  WATTS


**** 02/05/19 14:43:10 ****** PSpice 17.2.0 (March 2016) ****** ID# 0 ********

 ** Profile: "SCHEMATIC1-MonteCarlo"  [ E:\Circuits-I\Larson_Lab1-PSpiceFiles\SCHEMATIC1\MonteCarlo.sim ] 


 ****     INITIAL TRANSIENT SOLUTION       TEMPERATURE =   27.000 DEG C

                      MONTE CARLO PASS 8

******************************************************************************



 NODE   VOLTAGE     NODE   VOLTAGE     NODE   VOLTAGE     NODE   VOLTAGE


(   VA)    2.7362  (   VB)     .3944  (N00187)    5.0000 




    VOLTAGE SOURCE CURRENTS
    NAME         CURRENT

    V_V1        -3.959E-04

    TOTAL POWER DISSIPATION   1.98E-03  WATTS


**** 02/05/19 14:43:10 ****** PSpice 17.2.0 (March 2016) ****** ID# 0 ********

 ** Profile: "SCHEMATIC1-MonteCarlo"  [ E:\Circuits-I\Larson_Lab1-PSpiceFiles\SCHEMATIC1\MonteCarlo.sim ] 


 ****     INITIAL TRANSIENT SOLUTION       TEMPERATURE =   27.000 DEG C

                      MONTE CARLO PASS 9

******************************************************************************



 NODE   VOLTAGE     NODE   VOLTAGE     NODE   VOLTAGE     NODE   VOLTAGE


(   VA)    2.6949  (   VB)     .3666  (N00187)    5.0000 




    VOLTAGE SOURCE CURRENTS
    NAME         CURRENT

    V_V1        -4.059E-04

    TOTAL POWER DISSIPATION   2.03E-03  WATTS


**** 02/05/19 14:43:10 ****** PSpice 17.2.0 (March 2016) ****** ID# 0 ********

 ** Profile: "SCHEMATIC1-MonteCarlo"  [ E:\Circuits-I\Larson_Lab1-PSpiceFiles\SCHEMATIC1\MonteCarlo.sim ] 


 ****     INITIAL TRANSIENT SOLUTION       TEMPERATURE =   27.000 DEG C

                      MONTE CARLO PASS 10

******************************************************************************



 NODE   VOLTAGE     NODE   VOLTAGE     NODE   VOLTAGE     NODE   VOLTAGE


(   VA)    2.5295  (   VB)     .4258  (N00187)    5.0000 




    VOLTAGE SOURCE CURRENTS
    NAME         CURRENT

    V_V1        -4.082E-04

    TOTAL POWER DISSIPATION   2.04E-03  WATTS


**** 02/05/19 14:43:10 ****** PSpice 17.2.0 (March 2016) ****** ID# 0 ********

 ** Profile: "SCHEMATIC1-MonteCarlo"  [ E:\Circuits-I\Larson_Lab1-PSpiceFiles\SCHEMATIC1\MonteCarlo.sim ] 


 ****     INITIAL TRANSIENT SOLUTION       TEMPERATURE =   27.000 DEG C

                      MONTE CARLO PASS 11

******************************************************************************



 NODE   VOLTAGE     NODE   VOLTAGE     NODE   VOLTAGE     NODE   VOLTAGE


(   VA)    2.6841  (   VB)     .4525  (N00187)    5.0000 




    VOLTAGE SOURCE CURRENTS
    NAME         CURRENT

    V_V1        -4.206E-04

    TOTAL POWER DISSIPATION   2.10E-03  WATTS


**** 02/05/19 14:43:10 ****** PSpice 17.2.0 (March 2016) ****** ID# 0 ********

 ** Profile: "SCHEMATIC1-MonteCarlo"  [ E:\Circuits-I\Larson_Lab1-PSpiceFiles\SCHEMATIC1\MonteCarlo.sim ] 


 ****     INITIAL TRANSIENT SOLUTION       TEMPERATURE =   27.000 DEG C

                      MONTE CARLO PASS 12

******************************************************************************



 NODE   VOLTAGE     NODE   VOLTAGE     NODE   VOLTAGE     NODE   VOLTAGE


(   VA)    2.8161  (   VB)     .4404  (N00187)    5.0000 




    VOLTAGE SOURCE CURRENTS
    NAME         CURRENT

    V_V1        -4.143E-04

    TOTAL POWER DISSIPATION   2.07E-03  WATTS


**** 02/05/19 14:43:10 ****** PSpice 17.2.0 (March 2016) ****** ID# 0 ********

 ** Profile: "SCHEMATIC1-MonteCarlo"  [ E:\Circuits-I\Larson_Lab1-PSpiceFiles\SCHEMATIC1\MonteCarlo.sim ] 


 ****     INITIAL TRANSIENT SOLUTION       TEMPERATURE =   27.000 DEG C

                      MONTE CARLO PASS 13

******************************************************************************



 NODE   VOLTAGE     NODE   VOLTAGE     NODE   VOLTAGE     NODE   VOLTAGE


(   VA)    2.7423  (   VB)     .3793  (N00187)    5.0000 




    VOLTAGE SOURCE CURRENTS
    NAME         CURRENT

    V_V1        -3.849E-04

    TOTAL POWER DISSIPATION   1.92E-03  WATTS


**** 02/05/19 14:43:10 ****** PSpice 17.2.0 (March 2016) ****** ID# 0 ********

 ** Profile: "SCHEMATIC1-MonteCarlo"  [ E:\Circuits-I\Larson_Lab1-PSpiceFiles\SCHEMATIC1\MonteCarlo.sim ] 


 ****     INITIAL TRANSIENT SOLUTION       TEMPERATURE =   27.000 DEG C

                      MONTE CARLO PASS 14

******************************************************************************



 NODE   VOLTAGE     NODE   VOLTAGE     NODE   VOLTAGE     NODE   VOLTAGE


(   VA)    2.7785  (   VB)     .4447  (N00187)    5.0000 




    VOLTAGE SOURCE CURRENTS
    NAME         CURRENT

    V_V1        -4.085E-04

    TOTAL POWER DISSIPATION   2.04E-03  WATTS


**** 02/05/19 14:43:10 ****** PSpice 17.2.0 (March 2016) ****** ID# 0 ********

 ** Profile: "SCHEMATIC1-MonteCarlo"  [ E:\Circuits-I\Larson_Lab1-PSpiceFiles\SCHEMATIC1\MonteCarlo.sim ] 


 ****     INITIAL TRANSIENT SOLUTION       TEMPERATURE =   27.000 DEG C

                      MONTE CARLO PASS 15

******************************************************************************



 NODE   VOLTAGE     NODE   VOLTAGE     NODE   VOLTAGE     NODE   VOLTAGE


(   VA)    2.7433  (   VB)     .3885  (N00187)    5.0000 




    VOLTAGE SOURCE CURRENTS
    NAME         CURRENT

    V_V1        -3.890E-04

    TOTAL POWER DISSIPATION   1.95E-03  WATTS


**** 02/05/19 14:43:10 ****** PSpice 17.2.0 (March 2016) ****** ID# 0 ********

 ** Profile: "SCHEMATIC1-MonteCarlo"  [ E:\Circuits-I\Larson_Lab1-PSpiceFiles\SCHEMATIC1\MonteCarlo.sim ] 


 ****     INITIAL TRANSIENT SOLUTION       TEMPERATURE =   27.000 DEG C

                      MONTE CARLO PASS 16

******************************************************************************



 NODE   VOLTAGE     NODE   VOLTAGE     NODE   VOLTAGE     NODE   VOLTAGE


(   VA)    2.7238  (   VB)     .4153  (N00187)    5.0000 




    VOLTAGE SOURCE CURRENTS
    NAME         CURRENT

    V_V1        -3.845E-04

    TOTAL POWER DISSIPATION   1.92E-03  WATTS


**** 02/05/19 14:43:10 ****** PSpice 17.2.0 (March 2016) ****** ID# 0 ********

 ** Profile: "SCHEMATIC1-MonteCarlo"  [ E:\Circuits-I\Larson_Lab1-PSpiceFiles\SCHEMATIC1\MonteCarlo.sim ] 


 ****     INITIAL TRANSIENT SOLUTION       TEMPERATURE =   27.000 DEG C

                      MONTE CARLO PASS 17

******************************************************************************



 NODE   VOLTAGE     NODE   VOLTAGE     NODE   VOLTAGE     NODE   VOLTAGE


(   VA)    2.8278  (   VB)     .4128  (N00187)    5.0000 




    VOLTAGE SOURCE CURRENTS
    NAME         CURRENT

    V_V1        -3.976E-04

    TOTAL POWER DISSIPATION   1.99E-03  WATTS


**** 02/05/19 14:43:10 ****** PSpice 17.2.0 (March 2016) ****** ID# 0 ********

 ** Profile: "SCHEMATIC1-MonteCarlo"  [ E:\Circuits-I\Larson_Lab1-PSpiceFiles\SCHEMATIC1\MonteCarlo.sim ] 


 ****     INITIAL TRANSIENT SOLUTION       TEMPERATURE =   27.000 DEG C

                      MONTE CARLO PASS 18

******************************************************************************



 NODE   VOLTAGE     NODE   VOLTAGE     NODE   VOLTAGE     NODE   VOLTAGE


(   VA)    2.7956  (   VB)     .4072  (N00187)    5.0000 




    VOLTAGE SOURCE CURRENTS
    NAME         CURRENT

    V_V1        -4.120E-04

    TOTAL POWER DISSIPATION   2.06E-03  WATTS


**** 02/05/19 14:43:10 ****** PSpice 17.2.0 (March 2016) ****** ID# 0 ********

 ** Profile: "SCHEMATIC1-MonteCarlo"  [ E:\Circuits-I\Larson_Lab1-PSpiceFiles\SCHEMATIC1\MonteCarlo.sim ] 


 ****     INITIAL TRANSIENT SOLUTION       TEMPERATURE =   27.000 DEG C

                      MONTE CARLO PASS 19

******************************************************************************



 NODE   VOLTAGE     NODE   VOLTAGE     NODE   VOLTAGE     NODE   VOLTAGE


(   VA)    2.7331  (   VB)     .3835  (N00187)    5.0000 




    VOLTAGE SOURCE CURRENTS
    NAME         CURRENT

    V_V1        -4.026E-04

    TOTAL POWER DISSIPATION   2.01E-03  WATTS


**** 02/05/19 14:43:10 ****** PSpice 17.2.0 (March 2016) ****** ID# 0 ********

 ** Profile: "SCHEMATIC1-MonteCarlo"  [ E:\Circuits-I\Larson_Lab1-PSpiceFiles\SCHEMATIC1\MonteCarlo.sim ] 


 ****     INITIAL TRANSIENT SOLUTION       TEMPERATURE =   27.000 DEG C

                      MONTE CARLO PASS 20

******************************************************************************



 NODE   VOLTAGE     NODE   VOLTAGE     NODE   VOLTAGE     NODE   VOLTAGE


(   VA)    2.5534  (   VB)     .3981  (N00187)    5.0000 




    VOLTAGE SOURCE CURRENTS
    NAME         CURRENT

    V_V1        -3.991E-04

    TOTAL POWER DISSIPATION   2.00E-03  WATTS


**** 02/05/19 14:43:10 ****** PSpice 17.2.0 (March 2016) ****** ID# 0 ********

 ** Profile: "SCHEMATIC1-MonteCarlo"  [ E:\Circuits-I\Larson_Lab1-PSpiceFiles\SCHEMATIC1\MonteCarlo.sim ] 


 ****     INITIAL TRANSIENT SOLUTION       TEMPERATURE =   27.000 DEG C

                      MONTE CARLO PASS 21

******************************************************************************



 NODE   VOLTAGE     NODE   VOLTAGE     NODE   VOLTAGE     NODE   VOLTAGE


(   VA)    2.7952  (   VB)     .4251  (N00187)    5.0000 




    VOLTAGE SOURCE CURRENTS
    NAME         CURRENT

    V_V1        -4.039E-04

    TOTAL POWER DISSIPATION   2.02E-03  WATTS


**** 02/05/19 14:43:10 ****** PSpice 17.2.0 (March 2016) ****** ID# 0 ********

 ** Profile: "SCHEMATIC1-MonteCarlo"  [ E:\Circuits-I\Larson_Lab1-PSpiceFiles\SCHEMATIC1\MonteCarlo.sim ] 


 ****     INITIAL TRANSIENT SOLUTION       TEMPERATURE =   27.000 DEG C

                      MONTE CARLO PASS 22

******************************************************************************



 NODE   VOLTAGE     NODE   VOLTAGE     NODE   VOLTAGE     NODE   VOLTAGE


(   VA)    2.8184  (   VB)     .4089  (N00187)    5.0000 




    VOLTAGE SOURCE CURRENTS
    NAME         CURRENT

    V_V1        -4.048E-04

    TOTAL POWER DISSIPATION   2.02E-03  WATTS


**** 02/05/19 14:43:10 ****** PSpice 17.2.0 (March 2016) ****** ID# 0 ********

 ** Profile: "SCHEMATIC1-MonteCarlo"  [ E:\Circuits-I\Larson_Lab1-PSpiceFiles\SCHEMATIC1\MonteCarlo.sim ] 


 ****     INITIAL TRANSIENT SOLUTION       TEMPERATURE =   27.000 DEG C

                      MONTE CARLO PASS 23

******************************************************************************



 NODE   VOLTAGE     NODE   VOLTAGE     NODE   VOLTAGE     NODE   VOLTAGE


(   VA)    2.7771  (   VB)     .4324  (N00187)    5.0000 




    VOLTAGE SOURCE CURRENTS
    NAME         CURRENT

    V_V1        -4.405E-04

    TOTAL POWER DISSIPATION   2.20E-03  WATTS


**** 02/05/19 14:43:10 ****** PSpice 17.2.0 (March 2016) ****** ID# 0 ********

 ** Profile: "SCHEMATIC1-MonteCarlo"  [ E:\Circuits-I\Larson_Lab1-PSpiceFiles\SCHEMATIC1\MonteCarlo.sim ] 


 ****     INITIAL TRANSIENT SOLUTION       TEMPERATURE =   27.000 DEG C

                      MONTE CARLO PASS 24

******************************************************************************



 NODE   VOLTAGE     NODE   VOLTAGE     NODE   VOLTAGE     NODE   VOLTAGE


(   VA)    2.6429  (   VB)     .3984  (N00187)    5.0000 




    VOLTAGE SOURCE CURRENTS
    NAME         CURRENT

    V_V1        -3.848E-04

    TOTAL POWER DISSIPATION   1.92E-03  WATTS


**** 02/05/19 14:43:10 ****** PSpice 17.2.0 (March 2016) ****** ID# 0 ********

 ** Profile: "SCHEMATIC1-MonteCarlo"  [ E:\Circuits-I\Larson_Lab1-PSpiceFiles\SCHEMATIC1\MonteCarlo.sim ] 


 ****     INITIAL TRANSIENT SOLUTION       TEMPERATURE =   27.000 DEG C

                      MONTE CARLO PASS 25

******************************************************************************



 NODE   VOLTAGE     NODE   VOLTAGE     NODE   VOLTAGE     NODE   VOLTAGE


(   VA)    2.8162  (   VB)     .4039  (N00187)    5.0000 




    VOLTAGE SOURCE CURRENTS
    NAME         CURRENT

    V_V1        -4.080E-04

    TOTAL POWER DISSIPATION   2.04E-03  WATTS


**** 02/05/19 14:43:10 ****** PSpice 17.2.0 (March 2016) ****** ID# 0 ********

 ** Profile: "SCHEMATIC1-MonteCarlo"  [ E:\Circuits-I\Larson_Lab1-PSpiceFiles\SCHEMATIC1\MonteCarlo.sim ] 


 ****     INITIAL TRANSIENT SOLUTION       TEMPERATURE =   27.000 DEG C

                      MONTE CARLO PASS 26

******************************************************************************



 NODE   VOLTAGE     NODE   VOLTAGE     NODE   VOLTAGE     NODE   VOLTAGE


(   VA)    2.4953  (   VB)     .3904  (N00187)    5.0000 




    VOLTAGE SOURCE CURRENTS
    NAME         CURRENT

    V_V1        -4.134E-04

    TOTAL POWER DISSIPATION   2.07E-03  WATTS


**** 02/05/19 14:43:10 ****** PSpice 17.2.0 (March 2016) ****** ID# 0 ********

 ** Profile: "SCHEMATIC1-MonteCarlo"  [ E:\Circuits-I\Larson_Lab1-PSpiceFiles\SCHEMATIC1\MonteCarlo.sim ] 


 ****     INITIAL TRANSIENT SOLUTION       TEMPERATURE =   27.000 DEG C

                      MONTE CARLO PASS 27

******************************************************************************



 NODE   VOLTAGE     NODE   VOLTAGE     NODE   VOLTAGE     NODE   VOLTAGE


(   VA)    2.6436  (   VB)     .4406  (N00187)    5.0000 




    VOLTAGE SOURCE CURRENTS
    NAME         CURRENT

    V_V1        -4.330E-04

    TOTAL POWER DISSIPATION   2.17E-03  WATTS


**** 02/05/19 14:43:10 ****** PSpice 17.2.0 (March 2016) ****** ID# 0 ********

 ** Profile: "SCHEMATIC1-MonteCarlo"  [ E:\Circuits-I\Larson_Lab1-PSpiceFiles\SCHEMATIC1\MonteCarlo.sim ] 


 ****     INITIAL TRANSIENT SOLUTION       TEMPERATURE =   27.000 DEG C

                      MONTE CARLO PASS 28

******************************************************************************



 NODE   VOLTAGE     NODE   VOLTAGE     NODE   VOLTAGE     NODE   VOLTAGE


(   VA)    2.5932  (   VB)     .3808  (N00187)    5.0000 




    VOLTAGE SOURCE CURRENTS
    NAME         CURRENT

    V_V1        -4.142E-04

    TOTAL POWER DISSIPATION   2.07E-03  WATTS


**** 02/05/19 14:43:10 ****** PSpice 17.2.0 (March 2016) ****** ID# 0 ********

 ** Profile: "SCHEMATIC1-MonteCarlo"  [ E:\Circuits-I\Larson_Lab1-PSpiceFiles\SCHEMATIC1\MonteCarlo.sim ] 


 ****     INITIAL TRANSIENT SOLUTION       TEMPERATURE =   27.000 DEG C

                      MONTE CARLO PASS 29

******************************************************************************



 NODE   VOLTAGE     NODE   VOLTAGE     NODE   VOLTAGE     NODE   VOLTAGE


(   VA)    2.6477  (   VB)     .3911  (N00187)    5.0000 




    VOLTAGE SOURCE CURRENTS
    NAME         CURRENT

    V_V1        -3.948E-04

    TOTAL POWER DISSIPATION   1.97E-03  WATTS


**** 02/05/19 14:43:10 ****** PSpice 17.2.0 (March 2016) ****** ID# 0 ********

 ** Profile: "SCHEMATIC1-MonteCarlo"  [ E:\Circuits-I\Larson_Lab1-PSpiceFiles\SCHEMATIC1\MonteCarlo.sim ] 


 ****     INITIAL TRANSIENT SOLUTION       TEMPERATURE =   27.000 DEG C

                      MONTE CARLO PASS 30

******************************************************************************



 NODE   VOLTAGE     NODE   VOLTAGE     NODE   VOLTAGE     NODE   VOLTAGE


(   VA)    2.8028  (   VB)     .4543  (N00187)    5.0000 




    VOLTAGE SOURCE CURRENTS
    NAME         CURRENT

    V_V1        -4.340E-04

    TOTAL POWER DISSIPATION   2.17E-03  WATTS


**** 02/05/19 14:43:10 ****** PSpice 17.2.0 (March 2016) ****** ID# 0 ********

 ** Profile: "SCHEMATIC1-MonteCarlo"  [ E:\Circuits-I\Larson_Lab1-PSpiceFiles\SCHEMATIC1\MonteCarlo.sim ] 


 ****     INITIAL TRANSIENT SOLUTION       TEMPERATURE =   27.000 DEG C

                      MONTE CARLO PASS 31

******************************************************************************



 NODE   VOLTAGE     NODE   VOLTAGE     NODE   VOLTAGE     NODE   VOLTAGE


(   VA)    2.9422  (   VB)     .4459  (N00187)    5.0000 




    VOLTAGE SOURCE CURRENTS
    NAME         CURRENT

    V_V1        -4.076E-04

    TOTAL POWER DISSIPATION   2.04E-03  WATTS


**** 02/05/19 14:43:10 ****** PSpice 17.2.0 (March 2016) ****** ID# 0 ********

 ** Profile: "SCHEMATIC1-MonteCarlo"  [ E:\Circuits-I\Larson_Lab1-PSpiceFiles\SCHEMATIC1\MonteCarlo.sim ] 


 ****     INITIAL TRANSIENT SOLUTION       TEMPERATURE =   27.000 DEG C

                      MONTE CARLO PASS 32

******************************************************************************



 NODE   VOLTAGE     NODE   VOLTAGE     NODE   VOLTAGE     NODE   VOLTAGE


(   VA)    2.5567  (   VB)     .3953  (N00187)    5.0000 




    VOLTAGE SOURCE CURRENTS
    NAME         CURRENT

    V_V1        -4.197E-04

    TOTAL POWER DISSIPATION   2.10E-03  WATTS


**** 02/05/19 14:43:10 ****** PSpice 17.2.0 (March 2016) ****** ID# 0 ********

 ** Profile: "SCHEMATIC1-MonteCarlo"  [ E:\Circuits-I\Larson_Lab1-PSpiceFiles\SCHEMATIC1\MonteCarlo.sim ] 


 ****     INITIAL TRANSIENT SOLUTION       TEMPERATURE =   27.000 DEG C

                      MONTE CARLO PASS 33

******************************************************************************



 NODE   VOLTAGE     NODE   VOLTAGE     NODE   VOLTAGE     NODE   VOLTAGE


(   VA)    2.8303  (   VB)     .4038  (N00187)    5.0000 




    VOLTAGE SOURCE CURRENTS
    NAME         CURRENT

    V_V1        -4.102E-04

    TOTAL POWER DISSIPATION   2.05E-03  WATTS


**** 02/05/19 14:43:10 ****** PSpice 17.2.0 (March 2016) ****** ID# 0 ********

 ** Profile: "SCHEMATIC1-MonteCarlo"  [ E:\Circuits-I\Larson_Lab1-PSpiceFiles\SCHEMATIC1\MonteCarlo.sim ] 


 ****     INITIAL TRANSIENT SOLUTION       TEMPERATURE =   27.000 DEG C

                      MONTE CARLO PASS 34

******************************************************************************



 NODE   VOLTAGE     NODE   VOLTAGE     NODE   VOLTAGE     NODE   VOLTAGE


(   VA)    2.6725  (   VB)     .4420  (N00187)    5.0000 




    VOLTAGE SOURCE CURRENTS
    NAME         CURRENT

    V_V1        -4.251E-04

    TOTAL POWER DISSIPATION   2.13E-03  WATTS


**** 02/05/19 14:43:10 ****** PSpice 17.2.0 (March 2016) ****** ID# 0 ********

 ** Profile: "SCHEMATIC1-MonteCarlo"  [ E:\Circuits-I\Larson_Lab1-PSpiceFiles\SCHEMATIC1\MonteCarlo.sim ] 


 ****     INITIAL TRANSIENT SOLUTION       TEMPERATURE =   27.000 DEG C

                      MONTE CARLO PASS 35

******************************************************************************



 NODE   VOLTAGE     NODE   VOLTAGE     NODE   VOLTAGE     NODE   VOLTAGE


(   VA)    2.7481  (   VB)     .4068  (N00187)    5.0000 




    VOLTAGE SOURCE CURRENTS
    NAME         CURRENT

    V_V1        -3.949E-04

    TOTAL POWER DISSIPATION   1.97E-03  WATTS


**** 02/05/19 14:43:10 ****** PSpice 17.2.0 (March 2016) ****** ID# 0 ********

 ** Profile: "SCHEMATIC1-MonteCarlo"  [ E:\Circuits-I\Larson_Lab1-PSpiceFiles\SCHEMATIC1\MonteCarlo.sim ] 


 ****     INITIAL TRANSIENT SOLUTION       TEMPERATURE =   27.000 DEG C

                      MONTE CARLO PASS 36

******************************************************************************



 NODE   VOLTAGE     NODE   VOLTAGE     NODE   VOLTAGE     NODE   VOLTAGE


(   VA)    2.6744  (   VB)     .4317  (N00187)    5.0000 




    VOLTAGE SOURCE CURRENTS
    NAME         CURRENT

    V_V1        -4.356E-04

    TOTAL POWER DISSIPATION   2.18E-03  WATTS


**** 02/05/19 14:43:10 ****** PSpice 17.2.0 (March 2016) ****** ID# 0 ********

 ** Profile: "SCHEMATIC1-MonteCarlo"  [ E:\Circuits-I\Larson_Lab1-PSpiceFiles\SCHEMATIC1\MonteCarlo.sim ] 


 ****     INITIAL TRANSIENT SOLUTION       TEMPERATURE =   27.000 DEG C

                      MONTE CARLO PASS 37

******************************************************************************



 NODE   VOLTAGE     NODE   VOLTAGE     NODE   VOLTAGE     NODE   VOLTAGE


(   VA)    2.6545  (   VB)     .4186  (N00187)    5.0000 




    VOLTAGE SOURCE CURRENTS
    NAME         CURRENT

    V_V1        -3.920E-04

    TOTAL POWER DISSIPATION   1.96E-03  WATTS


**** 02/05/19 14:43:10 ****** PSpice 17.2.0 (March 2016) ****** ID# 0 ********

 ** Profile: "SCHEMATIC1-MonteCarlo"  [ E:\Circuits-I\Larson_Lab1-PSpiceFiles\SCHEMATIC1\MonteCarlo.sim ] 


 ****     INITIAL TRANSIENT SOLUTION       TEMPERATURE =   27.000 DEG C

                      MONTE CARLO PASS 38

******************************************************************************



 NODE   VOLTAGE     NODE   VOLTAGE     NODE   VOLTAGE     NODE   VOLTAGE


(   VA)    2.6633  (   VB)     .4335  (N00187)    5.0000 




    VOLTAGE SOURCE CURRENTS
    NAME         CURRENT

    V_V1        -4.361E-04

    TOTAL POWER DISSIPATION   2.18E-03  WATTS


**** 02/05/19 14:43:10 ****** PSpice 17.2.0 (March 2016) ****** ID# 0 ********

 ** Profile: "SCHEMATIC1-MonteCarlo"  [ E:\Circuits-I\Larson_Lab1-PSpiceFiles\SCHEMATIC1\MonteCarlo.sim ] 


 ****     INITIAL TRANSIENT SOLUTION       TEMPERATURE =   27.000 DEG C

                      MONTE CARLO PASS 39

******************************************************************************



 NODE   VOLTAGE     NODE   VOLTAGE     NODE   VOLTAGE     NODE   VOLTAGE


(   VA)    2.7052  (   VB)     .4014  (N00187)    5.0000 




    VOLTAGE SOURCE CURRENTS
    NAME         CURRENT

    V_V1        -4.037E-04

    TOTAL POWER DISSIPATION   2.02E-03  WATTS


**** 02/05/19 14:43:10 ****** PSpice 17.2.0 (March 2016) ****** ID# 0 ********

 ** Profile: "SCHEMATIC1-MonteCarlo"  [ E:\Circuits-I\Larson_Lab1-PSpiceFiles\SCHEMATIC1\MonteCarlo.sim ] 


 ****     INITIAL TRANSIENT SOLUTION       TEMPERATURE =   27.000 DEG C

                      MONTE CARLO PASS 40

******************************************************************************



 NODE   VOLTAGE     NODE   VOLTAGE     NODE   VOLTAGE     NODE   VOLTAGE


(   VA)    2.5457  (   VB)     .4335  (N00187)    5.0000 




    VOLTAGE SOURCE CURRENTS
    NAME         CURRENT

    V_V1        -3.993E-04

    TOTAL POWER DISSIPATION   2.00E-03  WATTS


**** 02/05/19 14:43:10 ****** PSpice 17.2.0 (March 2016) ****** ID# 0 ********

 ** Profile: "SCHEMATIC1-MonteCarlo"  [ E:\Circuits-I\Larson_Lab1-PSpiceFiles\SCHEMATIC1\MonteCarlo.sim ] 


 ****     INITIAL TRANSIENT SOLUTION       TEMPERATURE =   27.000 DEG C

                      MONTE CARLO PASS 41

******************************************************************************



 NODE   VOLTAGE     NODE   VOLTAGE     NODE   VOLTAGE     NODE   VOLTAGE


(   VA)    2.7057  (   VB)     .4525  (N00187)    5.0000 




    VOLTAGE SOURCE CURRENTS
    NAME         CURRENT

    V_V1        -4.256E-04

    TOTAL POWER DISSIPATION   2.13E-03  WATTS


**** 02/05/19 14:43:10 ****** PSpice 17.2.0 (March 2016) ****** ID# 0 ********

 ** Profile: "SCHEMATIC1-MonteCarlo"  [ E:\Circuits-I\Larson_Lab1-PSpiceFiles\SCHEMATIC1\MonteCarlo.sim ] 


 ****     INITIAL TRANSIENT SOLUTION       TEMPERATURE =   27.000 DEG C

                      MONTE CARLO PASS 42

******************************************************************************



 NODE   VOLTAGE     NODE   VOLTAGE     NODE   VOLTAGE     NODE   VOLTAGE


(   VA)    2.6561  (   VB)     .3842  (N00187)    5.0000 




    VOLTAGE SOURCE CURRENTS
    NAME         CURRENT

    V_V1        -3.844E-04

    TOTAL POWER DISSIPATION   1.92E-03  WATTS


**** 02/05/19 14:43:10 ****** PSpice 17.2.0 (March 2016) ****** ID# 0 ********

 ** Profile: "SCHEMATIC1-MonteCarlo"  [ E:\Circuits-I\Larson_Lab1-PSpiceFiles\SCHEMATIC1\MonteCarlo.sim ] 


 ****     INITIAL TRANSIENT SOLUTION       TEMPERATURE =   27.000 DEG C

                      MONTE CARLO PASS 43

******************************************************************************



 NODE   VOLTAGE     NODE   VOLTAGE     NODE   VOLTAGE     NODE   VOLTAGE


(   VA)    2.7339  (   VB)     .3984  (N00187)    5.0000 




    VOLTAGE SOURCE CURRENTS
    NAME         CURRENT

    V_V1        -3.931E-04

    TOTAL POWER DISSIPATION   1.97E-03  WATTS


**** 02/05/19 14:43:10 ****** PSpice 17.2.0 (March 2016) ****** ID# 0 ********

 ** Profile: "SCHEMATIC1-MonteCarlo"  [ E:\Circuits-I\Larson_Lab1-PSpiceFiles\SCHEMATIC1\MonteCarlo.sim ] 


 ****     INITIAL TRANSIENT SOLUTION       TEMPERATURE =   27.000 DEG C

                      MONTE CARLO PASS 44

******************************************************************************



 NODE   VOLTAGE     NODE   VOLTAGE     NODE   VOLTAGE     NODE   VOLTAGE


(   VA)    2.7018  (   VB)     .3973  (N00187)    5.0000 




    VOLTAGE SOURCE CURRENTS
    NAME         CURRENT

    V_V1        -3.756E-04

    TOTAL POWER DISSIPATION   1.88E-03  WATTS


**** 02/05/19 14:43:10 ****** PSpice 17.2.0 (March 2016) ****** ID# 0 ********

 ** Profile: "SCHEMATIC1-MonteCarlo"  [ E:\Circuits-I\Larson_Lab1-PSpiceFiles\SCHEMATIC1\MonteCarlo.sim ] 


 ****     INITIAL TRANSIENT SOLUTION       TEMPERATURE =   27.000 DEG C

                      MONTE CARLO PASS 45

******************************************************************************



 NODE   VOLTAGE     NODE   VOLTAGE     NODE   VOLTAGE     NODE   VOLTAGE


(   VA)    2.8177  (   VB)     .4414  (N00187)    5.0000 




    VOLTAGE SOURCE CURRENTS
    NAME         CURRENT

    V_V1        -4.128E-04

    TOTAL POWER DISSIPATION   2.06E-03  WATTS


**** 02/05/19 14:43:10 ****** PSpice 17.2.0 (March 2016) ****** ID# 0 ********

 ** Profile: "SCHEMATIC1-MonteCarlo"  [ E:\Circuits-I\Larson_Lab1-PSpiceFiles\SCHEMATIC1\MonteCarlo.sim ] 


 ****     INITIAL TRANSIENT SOLUTION       TEMPERATURE =   27.000 DEG C

                      MONTE CARLO PASS 46

******************************************************************************



 NODE   VOLTAGE     NODE   VOLTAGE     NODE   VOLTAGE     NODE   VOLTAGE


(   VA)    2.8906  (   VB)     .4404  (N00187)    5.0000 




    VOLTAGE SOURCE CURRENTS
    NAME         CURRENT

    V_V1        -4.008E-04

    TOTAL POWER DISSIPATION   2.00E-03  WATTS


**** 02/05/19 14:43:10 ****** PSpice 17.2.0 (March 2016) ****** ID# 0 ********

 ** Profile: "SCHEMATIC1-MonteCarlo"  [ E:\Circuits-I\Larson_Lab1-PSpiceFiles\SCHEMATIC1\MonteCarlo.sim ] 


 ****     INITIAL TRANSIENT SOLUTION       TEMPERATURE =   27.000 DEG C

                      MONTE CARLO PASS 47

******************************************************************************



 NODE   VOLTAGE     NODE   VOLTAGE     NODE   VOLTAGE     NODE   VOLTAGE


(   VA)    2.6337  (   VB)     .4314  (N00187)    5.0000 




    VOLTAGE SOURCE CURRENTS
    NAME         CURRENT

    V_V1        -4.130E-04

    TOTAL POWER DISSIPATION   2.06E-03  WATTS


**** 02/05/19 14:43:10 ****** PSpice 17.2.0 (March 2016) ****** ID# 0 ********

 ** Profile: "SCHEMATIC1-MonteCarlo"  [ E:\Circuits-I\Larson_Lab1-PSpiceFiles\SCHEMATIC1\MonteCarlo.sim ] 


 ****     INITIAL TRANSIENT SOLUTION       TEMPERATURE =   27.000 DEG C

                      MONTE CARLO PASS 48

******************************************************************************



 NODE   VOLTAGE     NODE   VOLTAGE     NODE   VOLTAGE     NODE   VOLTAGE


(   VA)    2.7398  (   VB)     .3550  (N00187)    5.0000 




    VOLTAGE SOURCE CURRENTS
    NAME         CURRENT

    V_V1        -3.945E-04

    TOTAL POWER DISSIPATION   1.97E-03  WATTS


**** 02/05/19 14:43:10 ****** PSpice 17.2.0 (March 2016) ****** ID# 0 ********

 ** Profile: "SCHEMATIC1-MonteCarlo"  [ E:\Circuits-I\Larson_Lab1-PSpiceFiles\SCHEMATIC1\MonteCarlo.sim ] 


 ****     INITIAL TRANSIENT SOLUTION       TEMPERATURE =   27.000 DEG C

                      MONTE CARLO PASS 49

******************************************************************************



 NODE   VOLTAGE     NODE   VOLTAGE     NODE   VOLTAGE     NODE   VOLTAGE


(   VA)    2.6699  (   VB)     .4078  (N00187)    5.0000 




    VOLTAGE SOURCE CURRENTS
    NAME         CURRENT

    V_V1        -4.273E-04

    TOTAL POWER DISSIPATION   2.14E-03  WATTS


**** 02/05/19 14:43:10 ****** PSpice 17.2.0 (March 2016) ****** ID# 0 ********

 ** Profile: "SCHEMATIC1-MonteCarlo"  [ E:\Circuits-I\Larson_Lab1-PSpiceFiles\SCHEMATIC1\MonteCarlo.sim ] 


 ****     INITIAL TRANSIENT SOLUTION       TEMPERATURE =   27.000 DEG C

                      MONTE CARLO PASS 50

******************************************************************************



 NODE   VOLTAGE     NODE   VOLTAGE     NODE   VOLTAGE     NODE   VOLTAGE


(   VA)    2.7353  (   VB)     .3806  (N00187)    5.0000 




    VOLTAGE SOURCE CURRENTS
    NAME         CURRENT

    V_V1        -3.889E-04

    TOTAL POWER DISSIPATION   1.94E-03  WATTS


**** 02/05/19 14:43:10 ****** PSpice 17.2.0 (March 2016) ****** ID# 0 ********

 ** Profile: "SCHEMATIC1-MonteCarlo"  [ E:\Circuits-I\Larson_Lab1-PSpiceFiles\SCHEMATIC1\MonteCarlo.sim ] 


 ****     INITIAL TRANSIENT SOLUTION       TEMPERATURE =   27.000 DEG C

                      MONTE CARLO PASS 51

******************************************************************************



 NODE   VOLTAGE     NODE   VOLTAGE     NODE   VOLTAGE     NODE   VOLTAGE


(   VA)    2.7055  (   VB)     .3991  (N00187)    5.0000 




    VOLTAGE SOURCE CURRENTS
    NAME         CURRENT

    V_V1        -4.276E-04

    TOTAL POWER DISSIPATION   2.14E-03  WATTS


**** 02/05/19 14:43:10 ****** PSpice 17.2.0 (March 2016) ****** ID# 0 ********

 ** Profile: "SCHEMATIC1-MonteCarlo"  [ E:\Circuits-I\Larson_Lab1-PSpiceFiles\SCHEMATIC1\MonteCarlo.sim ] 


 ****     INITIAL TRANSIENT SOLUTION       TEMPERATURE =   27.000 DEG C

                      MONTE CARLO PASS 52

******************************************************************************



 NODE   VOLTAGE     NODE   VOLTAGE     NODE   VOLTAGE     NODE   VOLTAGE


(   VA)    2.5815  (   VB)     .4186  (N00187)    5.0000 




    VOLTAGE SOURCE CURRENTS
    NAME         CURRENT

    V_V1        -4.193E-04

    TOTAL POWER DISSIPATION   2.10E-03  WATTS


**** 02/05/19 14:43:10 ****** PSpice 17.2.0 (March 2016) ****** ID# 0 ********

 ** Profile: "SCHEMATIC1-MonteCarlo"  [ E:\Circuits-I\Larson_Lab1-PSpiceFiles\SCHEMATIC1\MonteCarlo.sim ] 


 ****     INITIAL TRANSIENT SOLUTION       TEMPERATURE =   27.000 DEG C

                      MONTE CARLO PASS 53

******************************************************************************



 NODE   VOLTAGE     NODE   VOLTAGE     NODE   VOLTAGE     NODE   VOLTAGE


(   VA)    2.6496  (   VB)     .4206  (N00187)    5.0000 




    VOLTAGE SOURCE CURRENTS
    NAME         CURRENT

    V_V1        -3.891E-04

    TOTAL POWER DISSIPATION   1.95E-03  WATTS


**** 02/05/19 14:43:10 ****** PSpice 17.2.0 (March 2016) ****** ID# 0 ********

 ** Profile: "SCHEMATIC1-MonteCarlo"  [ E:\Circuits-I\Larson_Lab1-PSpiceFiles\SCHEMATIC1\MonteCarlo.sim ] 


 ****     INITIAL TRANSIENT SOLUTION       TEMPERATURE =   27.000 DEG C

                      MONTE CARLO PASS 54

******************************************************************************



 NODE   VOLTAGE     NODE   VOLTAGE     NODE   VOLTAGE     NODE   VOLTAGE


(   VA)    2.6931  (   VB)     .3904  (N00187)    5.0000 




    VOLTAGE SOURCE CURRENTS
    NAME         CURRENT

    V_V1        -3.860E-04

    TOTAL POWER DISSIPATION   1.93E-03  WATTS


**** 02/05/19 14:43:10 ****** PSpice 17.2.0 (March 2016) ****** ID# 0 ********

 ** Profile: "SCHEMATIC1-MonteCarlo"  [ E:\Circuits-I\Larson_Lab1-PSpiceFiles\SCHEMATIC1\MonteCarlo.sim ] 


 ****     INITIAL TRANSIENT SOLUTION       TEMPERATURE =   27.000 DEG C

                      MONTE CARLO PASS 55

******************************************************************************



 NODE   VOLTAGE     NODE   VOLTAGE     NODE   VOLTAGE     NODE   VOLTAGE


(   VA)    2.8305  (   VB)     .4298  (N00187)    5.0000 




    VOLTAGE SOURCE CURRENTS
    NAME         CURRENT

    V_V1        -4.122E-04

    TOTAL POWER DISSIPATION   2.06E-03  WATTS


**** 02/05/19 14:43:10 ****** PSpice 17.2.0 (March 2016) ****** ID# 0 ********

 ** Profile: "SCHEMATIC1-MonteCarlo"  [ E:\Circuits-I\Larson_Lab1-PSpiceFiles\SCHEMATIC1\MonteCarlo.sim ] 


 ****     INITIAL TRANSIENT SOLUTION       TEMPERATURE =   27.000 DEG C

                      MONTE CARLO PASS 56

******************************************************************************



 NODE   VOLTAGE     NODE   VOLTAGE     NODE   VOLTAGE     NODE   VOLTAGE


(   VA)    2.7955  (   VB)     .4089  (N00187)    5.0000 




    VOLTAGE SOURCE CURRENTS
    NAME         CURRENT

    V_V1        -4.290E-04

    TOTAL POWER DISSIPATION   2.15E-03  WATTS


**** 02/05/19 14:43:10 ****** PSpice 17.2.0 (March 2016) ****** ID# 0 ********

 ** Profile: "SCHEMATIC1-MonteCarlo"  [ E:\Circuits-I\Larson_Lab1-PSpiceFiles\SCHEMATIC1\MonteCarlo.sim ] 


 ****     INITIAL TRANSIENT SOLUTION       TEMPERATURE =   27.000 DEG C

                      MONTE CARLO PASS 57

******************************************************************************



 NODE   VOLTAGE     NODE   VOLTAGE     NODE   VOLTAGE     NODE   VOLTAGE


(   VA)    2.7351  (   VB)     .3642  (N00187)    5.0000 




    VOLTAGE SOURCE CURRENTS
    NAME         CURRENT

    V_V1        -3.928E-04

    TOTAL POWER DISSIPATION   1.96E-03  WATTS


**** 02/05/19 14:43:10 ****** PSpice 17.2.0 (March 2016) ****** ID# 0 ********

 ** Profile: "SCHEMATIC1-MonteCarlo"  [ E:\Circuits-I\Larson_Lab1-PSpiceFiles\SCHEMATIC1\MonteCarlo.sim ] 


 ****     INITIAL TRANSIENT SOLUTION       TEMPERATURE =   27.000 DEG C

                      MONTE CARLO PASS 58

******************************************************************************



 NODE   VOLTAGE     NODE   VOLTAGE     NODE   VOLTAGE     NODE   VOLTAGE


(   VA)    2.6761  (   VB)     .3626  (N00187)    5.0000 




    VOLTAGE SOURCE CURRENTS
    NAME         CURRENT

    V_V1        -3.784E-04

    TOTAL POWER DISSIPATION   1.89E-03  WATTS


**** 02/05/19 14:43:10 ****** PSpice 17.2.0 (March 2016) ****** ID# 0 ********

 ** Profile: "SCHEMATIC1-MonteCarlo"  [ E:\Circuits-I\Larson_Lab1-PSpiceFiles\SCHEMATIC1\MonteCarlo.sim ] 


 ****     INITIAL TRANSIENT SOLUTION       TEMPERATURE =   27.000 DEG C

                      MONTE CARLO PASS 59

******************************************************************************



 NODE   VOLTAGE     NODE   VOLTAGE     NODE   VOLTAGE     NODE   VOLTAGE


(   VA)    2.5351  (   VB)     .4031  (N00187)    5.0000 




    VOLTAGE SOURCE CURRENTS
    NAME         CURRENT

    V_V1        -4.227E-04

    TOTAL POWER DISSIPATION   2.11E-03  WATTS


**** 02/05/19 14:43:10 ****** PSpice 17.2.0 (March 2016) ****** ID# 0 ********

 ** Profile: "SCHEMATIC1-MonteCarlo"  [ E:\Circuits-I\Larson_Lab1-PSpiceFiles\SCHEMATIC1\MonteCarlo.sim ] 


 ****     INITIAL TRANSIENT SOLUTION       TEMPERATURE =   27.000 DEG C

                      MONTE CARLO PASS 60

******************************************************************************



 NODE   VOLTAGE     NODE   VOLTAGE     NODE   VOLTAGE     NODE   VOLTAGE


(   VA)    2.6134  (   VB)     .4146  (N00187)    5.0000 




    VOLTAGE SOURCE CURRENTS
    NAME         CURRENT

    V_V1        -3.964E-04

    TOTAL POWER DISSIPATION   1.98E-03  WATTS


**** 02/05/19 14:43:10 ****** PSpice 17.2.0 (March 2016) ****** ID# 0 ********

 ** Profile: "SCHEMATIC1-MonteCarlo"  [ E:\Circuits-I\Larson_Lab1-PSpiceFiles\SCHEMATIC1\MonteCarlo.sim ] 


 ****     INITIAL TRANSIENT SOLUTION       TEMPERATURE =   27.000 DEG C

                      MONTE CARLO PASS 61

******************************************************************************



 NODE   VOLTAGE     NODE   VOLTAGE     NODE   VOLTAGE     NODE   VOLTAGE


(   VA)    2.8059  (   VB)     .3940  (N00187)    5.0000 




    VOLTAGE SOURCE CURRENTS
    NAME         CURRENT

    V_V1        -4.152E-04

    TOTAL POWER DISSIPATION   2.08E-03  WATTS


**** 02/05/19 14:43:10 ****** PSpice 17.2.0 (March 2016) ****** ID# 0 ********

 ** Profile: "SCHEMATIC1-MonteCarlo"  [ E:\Circuits-I\Larson_Lab1-PSpiceFiles\SCHEMATIC1\MonteCarlo.sim ] 


 ****     INITIAL TRANSIENT SOLUTION       TEMPERATURE =   27.000 DEG C

                      MONTE CARLO PASS 62

******************************************************************************



 NODE   VOLTAGE     NODE   VOLTAGE     NODE   VOLTAGE     NODE   VOLTAGE


(   VA)    2.5954  (   VB)     .4166  (N00187)    5.0000 




    VOLTAGE SOURCE CURRENTS
    NAME         CURRENT

    V_V1        -4.249E-04

    TOTAL POWER DISSIPATION   2.12E-03  WATTS


**** 02/05/19 14:43:10 ****** PSpice 17.2.0 (March 2016) ****** ID# 0 ********

 ** Profile: "SCHEMATIC1-MonteCarlo"  [ E:\Circuits-I\Larson_Lab1-PSpiceFiles\SCHEMATIC1\MonteCarlo.sim ] 


 ****     INITIAL TRANSIENT SOLUTION       TEMPERATURE =   27.000 DEG C

                      MONTE CARLO PASS 63

******************************************************************************



 NODE   VOLTAGE     NODE   VOLTAGE     NODE   VOLTAGE     NODE   VOLTAGE


(   VA)    2.7398  (   VB)     .4017  (N00187)    5.0000 




    VOLTAGE SOURCE CURRENTS
    NAME         CURRENT

    V_V1        -4.454E-04

    TOTAL POWER DISSIPATION   2.23E-03  WATTS


**** 02/05/19 14:43:10 ****** PSpice 17.2.0 (March 2016) ****** ID# 0 ********

 ** Profile: "SCHEMATIC1-MonteCarlo"  [ E:\Circuits-I\Larson_Lab1-PSpiceFiles\SCHEMATIC1\MonteCarlo.sim ] 


 ****     INITIAL TRANSIENT SOLUTION       TEMPERATURE =   27.000 DEG C

                      MONTE CARLO PASS 64

******************************************************************************



 NODE   VOLTAGE     NODE   VOLTAGE     NODE   VOLTAGE     NODE   VOLTAGE


(   VA)    2.6471  (   VB)     .3793  (N00187)    5.0000 




    VOLTAGE SOURCE CURRENTS
    NAME         CURRENT

    V_V1        -4.134E-04

    TOTAL POWER DISSIPATION   2.07E-03  WATTS


**** 02/05/19 14:43:10 ****** PSpice 17.2.0 (March 2016) ****** ID# 0 ********

 ** Profile: "SCHEMATIC1-MonteCarlo"  [ E:\Circuits-I\Larson_Lab1-PSpiceFiles\SCHEMATIC1\MonteCarlo.sim ] 


 ****     INITIAL TRANSIENT SOLUTION       TEMPERATURE =   27.000 DEG C

                      MONTE CARLO PASS 65

******************************************************************************



 NODE   VOLTAGE     NODE   VOLTAGE     NODE   VOLTAGE     NODE   VOLTAGE


(   VA)    2.7730  (   VB)     .4218  (N00187)    5.0000 




    VOLTAGE SOURCE CURRENTS
    NAME         CURRENT

    V_V1        -3.907E-04

    TOTAL POWER DISSIPATION   1.95E-03  WATTS


**** 02/05/19 14:43:10 ****** PSpice 17.2.0 (March 2016) ****** ID# 0 ********

 ** Profile: "SCHEMATIC1-MonteCarlo"  [ E:\Circuits-I\Larson_Lab1-PSpiceFiles\SCHEMATIC1\MonteCarlo.sim ] 


 ****     INITIAL TRANSIENT SOLUTION       TEMPERATURE =   27.000 DEG C

                      MONTE CARLO PASS 66

******************************************************************************



 NODE   VOLTAGE     NODE   VOLTAGE     NODE   VOLTAGE     NODE   VOLTAGE


(   VA)    2.6990  (   VB)     .4035  (N00187)    5.0000 




    VOLTAGE SOURCE CURRENTS
    NAME         CURRENT

    V_V1        -4.131E-04

    TOTAL POWER DISSIPATION   2.07E-03  WATTS


**** 02/05/19 14:43:10 ****** PSpice 17.2.0 (March 2016) ****** ID# 0 ********

 ** Profile: "SCHEMATIC1-MonteCarlo"  [ E:\Circuits-I\Larson_Lab1-PSpiceFiles\SCHEMATIC1\MonteCarlo.sim ] 


 ****     INITIAL TRANSIENT SOLUTION       TEMPERATURE =   27.000 DEG C

                      MONTE CARLO PASS 67

******************************************************************************



 NODE   VOLTAGE     NODE   VOLTAGE     NODE   VOLTAGE     NODE   VOLTAGE


(   VA)    2.7458  (   VB)     .3777  (N00187)    5.0000 




    VOLTAGE SOURCE CURRENTS
    NAME         CURRENT

    V_V1        -3.978E-04

    TOTAL POWER DISSIPATION   1.99E-03  WATTS


**** 02/05/19 14:43:10 ****** PSpice 17.2.0 (March 2016) ****** ID# 0 ********

 ** Profile: "SCHEMATIC1-MonteCarlo"  [ E:\Circuits-I\Larson_Lab1-PSpiceFiles\SCHEMATIC1\MonteCarlo.sim ] 


 ****     INITIAL TRANSIENT SOLUTION       TEMPERATURE =   27.000 DEG C

                      MONTE CARLO PASS 68

******************************************************************************



 NODE   VOLTAGE     NODE   VOLTAGE     NODE   VOLTAGE     NODE   VOLTAGE


(   VA)    2.5344  (   VB)     .4290  (N00187)    5.0000 




    VOLTAGE SOURCE CURRENTS
    NAME         CURRENT

    V_V1        -4.174E-04

    TOTAL POWER DISSIPATION   2.09E-03  WATTS


**** 02/05/19 14:43:10 ****** PSpice 17.2.0 (March 2016) ****** ID# 0 ********

 ** Profile: "SCHEMATIC1-MonteCarlo"  [ E:\Circuits-I\Larson_Lab1-PSpiceFiles\SCHEMATIC1\MonteCarlo.sim ] 


 ****     INITIAL TRANSIENT SOLUTION       TEMPERATURE =   27.000 DEG C

                      MONTE CARLO PASS 69

******************************************************************************



 NODE   VOLTAGE     NODE   VOLTAGE     NODE   VOLTAGE     NODE   VOLTAGE


(   VA)    2.8770  (   VB)     .3759  (N00187)    5.0000 




    VOLTAGE SOURCE CURRENTS
    NAME         CURRENT

    V_V1        -4.089E-04

    TOTAL POWER DISSIPATION   2.04E-03  WATTS


**** 02/05/19 14:43:10 ****** PSpice 17.2.0 (March 2016) ****** ID# 0 ********

 ** Profile: "SCHEMATIC1-MonteCarlo"  [ E:\Circuits-I\Larson_Lab1-PSpiceFiles\SCHEMATIC1\MonteCarlo.sim ] 


 ****     INITIAL TRANSIENT SOLUTION       TEMPERATURE =   27.000 DEG C

                      MONTE CARLO PASS 70

******************************************************************************



 NODE   VOLTAGE     NODE   VOLTAGE     NODE   VOLTAGE     NODE   VOLTAGE


(   VA)    2.8000  (   VB)     .3942  (N00187)    5.0000 




    VOLTAGE SOURCE CURRENTS
    NAME         CURRENT

    V_V1        -3.944E-04

    TOTAL POWER DISSIPATION   1.97E-03  WATTS


**** 02/05/19 14:43:10 ****** PSpice 17.2.0 (March 2016) ****** ID# 0 ********

 ** Profile: "SCHEMATIC1-MonteCarlo"  [ E:\Circuits-I\Larson_Lab1-PSpiceFiles\SCHEMATIC1\MonteCarlo.sim ] 


 ****     INITIAL TRANSIENT SOLUTION       TEMPERATURE =   27.000 DEG C

                      MONTE CARLO PASS 71

******************************************************************************



 NODE   VOLTAGE     NODE   VOLTAGE     NODE   VOLTAGE     NODE   VOLTAGE


(   VA)    2.7983  (   VB)     .3938  (N00187)    5.0000 




    VOLTAGE SOURCE CURRENTS
    NAME         CURRENT

    V_V1        -4.210E-04

    TOTAL POWER DISSIPATION   2.11E-03  WATTS


**** 02/05/19 14:43:10 ****** PSpice 17.2.0 (March 2016) ****** ID# 0 ********

 ** Profile: "SCHEMATIC1-MonteCarlo"  [ E:\Circuits-I\Larson_Lab1-PSpiceFiles\SCHEMATIC1\MonteCarlo.sim ] 


 ****     INITIAL TRANSIENT SOLUTION       TEMPERATURE =   27.000 DEG C

                      MONTE CARLO PASS 72

******************************************************************************



 NODE   VOLTAGE     NODE   VOLTAGE     NODE   VOLTAGE     NODE   VOLTAGE


(   VA)    2.5444  (   VB)     .4326  (N00187)    5.0000 




    VOLTAGE SOURCE CURRENTS
    NAME         CURRENT

    V_V1        -4.166E-04

    TOTAL POWER DISSIPATION   2.08E-03  WATTS


**** 02/05/19 14:43:10 ****** PSpice 17.2.0 (March 2016) ****** ID# 0 ********

 ** Profile: "SCHEMATIC1-MonteCarlo"  [ E:\Circuits-I\Larson_Lab1-PSpiceFiles\SCHEMATIC1\MonteCarlo.sim ] 


 ****     INITIAL TRANSIENT SOLUTION       TEMPERATURE =   27.000 DEG C

                      MONTE CARLO PASS 73

******************************************************************************



 NODE   VOLTAGE     NODE   VOLTAGE     NODE   VOLTAGE     NODE   VOLTAGE


(   VA)    2.5837  (   VB)     .3725  (N00187)    5.0000 




    VOLTAGE SOURCE CURRENTS
    NAME         CURRENT

    V_V1        -3.988E-04

    TOTAL POWER DISSIPATION   1.99E-03  WATTS


**** 02/05/19 14:43:10 ****** PSpice 17.2.0 (March 2016) ****** ID# 0 ********

 ** Profile: "SCHEMATIC1-MonteCarlo"  [ E:\Circuits-I\Larson_Lab1-PSpiceFiles\SCHEMATIC1\MonteCarlo.sim ] 


 ****     INITIAL TRANSIENT SOLUTION       TEMPERATURE =   27.000 DEG C

                      MONTE CARLO PASS 74

******************************************************************************



 NODE   VOLTAGE     NODE   VOLTAGE     NODE   VOLTAGE     NODE   VOLTAGE


(   VA)    2.7018  (   VB)     .4136  (N00187)    5.0000 




    VOLTAGE SOURCE CURRENTS
    NAME         CURRENT

    V_V1        -3.852E-04

    TOTAL POWER DISSIPATION   1.93E-03  WATTS


**** 02/05/19 14:43:10 ****** PSpice 17.2.0 (March 2016) ****** ID# 0 ********

 ** Profile: "SCHEMATIC1-MonteCarlo"  [ E:\Circuits-I\Larson_Lab1-PSpiceFiles\SCHEMATIC1\MonteCarlo.sim ] 


 ****     INITIAL TRANSIENT SOLUTION       TEMPERATURE =   27.000 DEG C

                      MONTE CARLO PASS 75

******************************************************************************



 NODE   VOLTAGE     NODE   VOLTAGE     NODE   VOLTAGE     NODE   VOLTAGE


(   VA)    2.5437  (   VB)     .4080  (N00187)    5.0000 




    VOLTAGE SOURCE CURRENTS
    NAME         CURRENT

    V_V1        -4.232E-04

    TOTAL POWER DISSIPATION   2.12E-03  WATTS


**** 02/05/19 14:43:10 ****** PSpice 17.2.0 (March 2016) ****** ID# 0 ********

 ** Profile: "SCHEMATIC1-MonteCarlo"  [ E:\Circuits-I\Larson_Lab1-PSpiceFiles\SCHEMATIC1\MonteCarlo.sim ] 


 ****     INITIAL TRANSIENT SOLUTION       TEMPERATURE =   27.000 DEG C

                      MONTE CARLO PASS 76

******************************************************************************



 NODE   VOLTAGE     NODE   VOLTAGE     NODE   VOLTAGE     NODE   VOLTAGE


(   VA)    2.6699  (   VB)     .3801  (N00187)    5.0000 




    VOLTAGE SOURCE CURRENTS
    NAME         CURRENT

    V_V1        -3.982E-04

    TOTAL POWER DISSIPATION   1.99E-03  WATTS


**** 02/05/19 14:43:10 ****** PSpice 17.2.0 (March 2016) ****** ID# 0 ********

 ** Profile: "SCHEMATIC1-MonteCarlo"  [ E:\Circuits-I\Larson_Lab1-PSpiceFiles\SCHEMATIC1\MonteCarlo.sim ] 


 ****     INITIAL TRANSIENT SOLUTION       TEMPERATURE =   27.000 DEG C

                      MONTE CARLO PASS 77

******************************************************************************



 NODE   VOLTAGE     NODE   VOLTAGE     NODE   VOLTAGE     NODE   VOLTAGE


(   VA)    2.6661  (   VB)     .4360  (N00187)    5.0000 




    VOLTAGE SOURCE CURRENTS
    NAME         CURRENT

    V_V1        -4.236E-04

    TOTAL POWER DISSIPATION   2.12E-03  WATTS


**** 02/05/19 14:43:10 ****** PSpice 17.2.0 (March 2016) ****** ID# 0 ********

 ** Profile: "SCHEMATIC1-MonteCarlo"  [ E:\Circuits-I\Larson_Lab1-PSpiceFiles\SCHEMATIC1\MonteCarlo.sim ] 


 ****     INITIAL TRANSIENT SOLUTION       TEMPERATURE =   27.000 DEG C

                      MONTE CARLO PASS 78

******************************************************************************



 NODE   VOLTAGE     NODE   VOLTAGE     NODE   VOLTAGE     NODE   VOLTAGE


(   VA)    2.7872  (   VB)     .4529  (N00187)    5.0000 




    VOLTAGE SOURCE CURRENTS
    NAME         CURRENT

    V_V1        -4.230E-04

    TOTAL POWER DISSIPATION   2.12E-03  WATTS


**** 02/05/19 14:43:10 ****** PSpice 17.2.0 (March 2016) ****** ID# 0 ********

 ** Profile: "SCHEMATIC1-MonteCarlo"  [ E:\Circuits-I\Larson_Lab1-PSpiceFiles\SCHEMATIC1\MonteCarlo.sim ] 


 ****     INITIAL TRANSIENT SOLUTION       TEMPERATURE =   27.000 DEG C

                      MONTE CARLO PASS 79

******************************************************************************



 NODE   VOLTAGE     NODE   VOLTAGE     NODE   VOLTAGE     NODE   VOLTAGE


(   VA)    2.5497  (   VB)     .4536  (N00187)    5.0000 




    VOLTAGE SOURCE CURRENTS
    NAME         CURRENT

    V_V1        -4.151E-04

    TOTAL POWER DISSIPATION   2.08E-03  WATTS


**** 02/05/19 14:43:10 ****** PSpice 17.2.0 (March 2016) ****** ID# 0 ********

 ** Profile: "SCHEMATIC1-MonteCarlo"  [ E:\Circuits-I\Larson_Lab1-PSpiceFiles\SCHEMATIC1\MonteCarlo.sim ] 


 ****     INITIAL TRANSIENT SOLUTION       TEMPERATURE =   27.000 DEG C

                      MONTE CARLO PASS 80

******************************************************************************



 NODE   VOLTAGE     NODE   VOLTAGE     NODE   VOLTAGE     NODE   VOLTAGE


(   VA)    2.7315  (   VB)     .4045  (N00187)    5.0000 




    VOLTAGE SOURCE CURRENTS
    NAME         CURRENT

    V_V1        -4.317E-04

    TOTAL POWER DISSIPATION   2.16E-03  WATTS


**** 02/05/19 14:43:10 ****** PSpice 17.2.0 (March 2016) ****** ID# 0 ********

 ** Profile: "SCHEMATIC1-MonteCarlo"  [ E:\Circuits-I\Larson_Lab1-PSpiceFiles\SCHEMATIC1\MonteCarlo.sim ] 


 ****     INITIAL TRANSIENT SOLUTION       TEMPERATURE =   27.000 DEG C

                      MONTE CARLO PASS 81

******************************************************************************



 NODE   VOLTAGE     NODE   VOLTAGE     NODE   VOLTAGE     NODE   VOLTAGE


(   VA)    2.6745  (   VB)     .4000  (N00187)    5.0000 




    VOLTAGE SOURCE CURRENTS
    NAME         CURRENT

    V_V1        -4.361E-04

    TOTAL POWER DISSIPATION   2.18E-03  WATTS


**** 02/05/19 14:43:10 ****** PSpice 17.2.0 (March 2016) ****** ID# 0 ********

 ** Profile: "SCHEMATIC1-MonteCarlo"  [ E:\Circuits-I\Larson_Lab1-PSpiceFiles\SCHEMATIC1\MonteCarlo.sim ] 


 ****     INITIAL TRANSIENT SOLUTION       TEMPERATURE =   27.000 DEG C

                      MONTE CARLO PASS 82

******************************************************************************



 NODE   VOLTAGE     NODE   VOLTAGE     NODE   VOLTAGE     NODE   VOLTAGE


(   VA)    2.6369  (   VB)     .4152  (N00187)    5.0000 




    VOLTAGE SOURCE CURRENTS
    NAME         CURRENT

    V_V1        -4.328E-04

    TOTAL POWER DISSIPATION   2.16E-03  WATTS


**** 02/05/19 14:43:10 ****** PSpice 17.2.0 (March 2016) ****** ID# 0 ********

 ** Profile: "SCHEMATIC1-MonteCarlo"  [ E:\Circuits-I\Larson_Lab1-PSpiceFiles\SCHEMATIC1\MonteCarlo.sim ] 


 ****     INITIAL TRANSIENT SOLUTION       TEMPERATURE =   27.000 DEG C

                      MONTE CARLO PASS 83

******************************************************************************



 NODE   VOLTAGE     NODE   VOLTAGE     NODE   VOLTAGE     NODE   VOLTAGE


(   VA)    2.5526  (   VB)     .4249  (N00187)    5.0000 




    VOLTAGE SOURCE CURRENTS
    NAME         CURRENT

    V_V1        -3.986E-04

    TOTAL POWER DISSIPATION   1.99E-03  WATTS


**** 02/05/19 14:43:10 ****** PSpice 17.2.0 (March 2016) ****** ID# 0 ********

 ** Profile: "SCHEMATIC1-MonteCarlo"  [ E:\Circuits-I\Larson_Lab1-PSpiceFiles\SCHEMATIC1\MonteCarlo.sim ] 


 ****     INITIAL TRANSIENT SOLUTION       TEMPERATURE =   27.000 DEG C

                      MONTE CARLO PASS 84

******************************************************************************



 NODE   VOLTAGE     NODE   VOLTAGE     NODE   VOLTAGE     NODE   VOLTAGE


(   VA)    2.5316  (   VB)     .4229  (N00187)    5.0000 




    VOLTAGE SOURCE CURRENTS
    NAME         CURRENT

    V_V1        -4.048E-04

    TOTAL POWER DISSIPATION   2.02E-03  WATTS


**** 02/05/19 14:43:10 ****** PSpice 17.2.0 (March 2016) ****** ID# 0 ********

 ** Profile: "SCHEMATIC1-MonteCarlo"  [ E:\Circuits-I\Larson_Lab1-PSpiceFiles\SCHEMATIC1\MonteCarlo.sim ] 


 ****     INITIAL TRANSIENT SOLUTION       TEMPERATURE =   27.000 DEG C

                      MONTE CARLO PASS 85

******************************************************************************



 NODE   VOLTAGE     NODE   VOLTAGE     NODE   VOLTAGE     NODE   VOLTAGE


(   VA)    2.6618  (   VB)     .3929  (N00187)    5.0000 




    VOLTAGE SOURCE CURRENTS
    NAME         CURRENT

    V_V1        -3.938E-04

    TOTAL POWER DISSIPATION   1.97E-03  WATTS


**** 02/05/19 14:43:10 ****** PSpice 17.2.0 (March 2016) ****** ID# 0 ********

 ** Profile: "SCHEMATIC1-MonteCarlo"  [ E:\Circuits-I\Larson_Lab1-PSpiceFiles\SCHEMATIC1\MonteCarlo.sim ] 


 ****     INITIAL TRANSIENT SOLUTION       TEMPERATURE =   27.000 DEG C

                      MONTE CARLO PASS 86

******************************************************************************



 NODE   VOLTAGE     NODE   VOLTAGE     NODE   VOLTAGE     NODE   VOLTAGE


(   VA)    2.7979  (   VB)     .4022  (N00187)    5.0000 




    VOLTAGE SOURCE CURRENTS
    NAME         CURRENT

    V_V1        -3.968E-04

    TOTAL POWER DISSIPATION   1.98E-03  WATTS


**** 02/05/19 14:43:10 ****** PSpice 17.2.0 (March 2016) ****** ID# 0 ********

 ** Profile: "SCHEMATIC1-MonteCarlo"  [ E:\Circuits-I\Larson_Lab1-PSpiceFiles\SCHEMATIC1\MonteCarlo.sim ] 


 ****     INITIAL TRANSIENT SOLUTION       TEMPERATURE =   27.000 DEG C

                      MONTE CARLO PASS 87

******************************************************************************



 NODE   VOLTAGE     NODE   VOLTAGE     NODE   VOLTAGE     NODE   VOLTAGE


(   VA)    2.7373  (   VB)     .3675  (N00187)    5.0000 




    VOLTAGE SOURCE CURRENTS
    NAME         CURRENT

    V_V1        -3.910E-04

    TOTAL POWER DISSIPATION   1.95E-03  WATTS


**** 02/05/19 14:43:10 ****** PSpice 17.2.0 (March 2016) ****** ID# 0 ********

 ** Profile: "SCHEMATIC1-MonteCarlo"  [ E:\Circuits-I\Larson_Lab1-PSpiceFiles\SCHEMATIC1\MonteCarlo.sim ] 


 ****     INITIAL TRANSIENT SOLUTION       TEMPERATURE =   27.000 DEG C

                      MONTE CARLO PASS 88

******************************************************************************



 NODE   VOLTAGE     NODE   VOLTAGE     NODE   VOLTAGE     NODE   VOLTAGE


(   VA)    2.6392  (   VB)     .3965  (N00187)    5.0000 




    VOLTAGE SOURCE CURRENTS
    NAME         CURRENT

    V_V1        -4.100E-04

    TOTAL POWER DISSIPATION   2.05E-03  WATTS


**** 02/05/19 14:43:10 ****** PSpice 17.2.0 (March 2016) ****** ID# 0 ********

 ** Profile: "SCHEMATIC1-MonteCarlo"  [ E:\Circuits-I\Larson_Lab1-PSpiceFiles\SCHEMATIC1\MonteCarlo.sim ] 


 ****     INITIAL TRANSIENT SOLUTION       TEMPERATURE =   27.000 DEG C

                      MONTE CARLO PASS 89

******************************************************************************



 NODE   VOLTAGE     NODE   VOLTAGE     NODE   VOLTAGE     NODE   VOLTAGE


(   VA)    2.6038  (   VB)     .4281  (N00187)    5.0000 




    VOLTAGE SOURCE CURRENTS
    NAME         CURRENT

    V_V1        -4.038E-04

    TOTAL POWER DISSIPATION   2.02E-03  WATTS


**** 02/05/19 14:43:10 ****** PSpice 17.2.0 (March 2016) ****** ID# 0 ********

 ** Profile: "SCHEMATIC1-MonteCarlo"  [ E:\Circuits-I\Larson_Lab1-PSpiceFiles\SCHEMATIC1\MonteCarlo.sim ] 


 ****     INITIAL TRANSIENT SOLUTION       TEMPERATURE =   27.000 DEG C

                      MONTE CARLO PASS 90

******************************************************************************



 NODE   VOLTAGE     NODE   VOLTAGE     NODE   VOLTAGE     NODE   VOLTAGE


(   VA)    2.7585  (   VB)     .4131  (N00187)    5.0000 




    VOLTAGE SOURCE CURRENTS
    NAME         CURRENT

    V_V1        -4.333E-04

    TOTAL POWER DISSIPATION   2.17E-03  WATTS


**** 02/05/19 14:43:10 ****** PSpice 17.2.0 (March 2016) ****** ID# 0 ********

 ** Profile: "SCHEMATIC1-MonteCarlo"  [ E:\Circuits-I\Larson_Lab1-PSpiceFiles\SCHEMATIC1\MonteCarlo.sim ] 


 ****     INITIAL TRANSIENT SOLUTION       TEMPERATURE =   27.000 DEG C

                      MONTE CARLO PASS 91

******************************************************************************



 NODE   VOLTAGE     NODE   VOLTAGE     NODE   VOLTAGE     NODE   VOLTAGE


(   VA)    2.5959  (   VB)     .3881  (N00187)    5.0000 




    VOLTAGE SOURCE CURRENTS
    NAME         CURRENT

    V_V1        -4.122E-04

    TOTAL POWER DISSIPATION   2.06E-03  WATTS


**** 02/05/19 14:43:10 ****** PSpice 17.2.0 (March 2016) ****** ID# 0 ********

 ** Profile: "SCHEMATIC1-MonteCarlo"  [ E:\Circuits-I\Larson_Lab1-PSpiceFiles\SCHEMATIC1\MonteCarlo.sim ] 


 ****     INITIAL TRANSIENT SOLUTION       TEMPERATURE =   27.000 DEG C

                      MONTE CARLO PASS 92

******************************************************************************



 NODE   VOLTAGE     NODE   VOLTAGE     NODE   VOLTAGE     NODE   VOLTAGE


(   VA)    2.8239  (   VB)     .3998  (N00187)    5.0000 




    VOLTAGE SOURCE CURRENTS
    NAME         CURRENT

    V_V1        -4.253E-04

    TOTAL POWER DISSIPATION   2.13E-03  WATTS


**** 02/05/19 14:43:10 ****** PSpice 17.2.0 (March 2016) ****** ID# 0 ********

 ** Profile: "SCHEMATIC1-MonteCarlo"  [ E:\Circuits-I\Larson_Lab1-PSpiceFiles\SCHEMATIC1\MonteCarlo.sim ] 


 ****     INITIAL TRANSIENT SOLUTION       TEMPERATURE =   27.000 DEG C

                      MONTE CARLO PASS 93

******************************************************************************



 NODE   VOLTAGE     NODE   VOLTAGE     NODE   VOLTAGE     NODE   VOLTAGE


(   VA)    2.7040  (   VB)     .4300  (N00187)    5.0000 




    VOLTAGE SOURCE CURRENTS
    NAME         CURRENT

    V_V1        -4.410E-04

    TOTAL POWER DISSIPATION   2.21E-03  WATTS


**** 02/05/19 14:43:10 ****** PSpice 17.2.0 (March 2016) ****** ID# 0 ********

 ** Profile: "SCHEMATIC1-MonteCarlo"  [ E:\Circuits-I\Larson_Lab1-PSpiceFiles\SCHEMATIC1\MonteCarlo.sim ] 


 ****     INITIAL TRANSIENT SOLUTION       TEMPERATURE =   27.000 DEG C

                      MONTE CARLO PASS 94

******************************************************************************



 NODE   VOLTAGE     NODE   VOLTAGE     NODE   VOLTAGE     NODE   VOLTAGE


(   VA)    2.8572  (   VB)     .4558  (N00187)    5.0000 




    VOLTAGE SOURCE CURRENTS
    NAME         CURRENT

    V_V1        -4.164E-04

    TOTAL POWER DISSIPATION   2.08E-03  WATTS


**** 02/05/19 14:43:10 ****** PSpice 17.2.0 (March 2016) ****** ID# 0 ********

 ** Profile: "SCHEMATIC1-MonteCarlo"  [ E:\Circuits-I\Larson_Lab1-PSpiceFiles\SCHEMATIC1\MonteCarlo.sim ] 


 ****     INITIAL TRANSIENT SOLUTION       TEMPERATURE =   27.000 DEG C

                      MONTE CARLO PASS 95

******************************************************************************



 NODE   VOLTAGE     NODE   VOLTAGE     NODE   VOLTAGE     NODE   VOLTAGE


(   VA)    2.6632  (   VB)     .4119  (N00187)    5.0000 




    VOLTAGE SOURCE CURRENTS
    NAME         CURRENT

    V_V1        -3.922E-04

    TOTAL POWER DISSIPATION   1.96E-03  WATTS


**** 02/05/19 14:43:10 ****** PSpice 17.2.0 (March 2016) ****** ID# 0 ********

 ** Profile: "SCHEMATIC1-MonteCarlo"  [ E:\Circuits-I\Larson_Lab1-PSpiceFiles\SCHEMATIC1\MonteCarlo.sim ] 


 ****     INITIAL TRANSIENT SOLUTION       TEMPERATURE =   27.000 DEG C

                      MONTE CARLO PASS 96

******************************************************************************



 NODE   VOLTAGE     NODE   VOLTAGE     NODE   VOLTAGE     NODE   VOLTAGE


(   VA)    2.6126  (   VB)     .3904  (N00187)    5.0000 




    VOLTAGE SOURCE CURRENTS
    NAME         CURRENT

    V_V1        -4.220E-04

    TOTAL POWER DISSIPATION   2.11E-03  WATTS


**** 02/05/19 14:43:10 ****** PSpice 17.2.0 (March 2016) ****** ID# 0 ********

 ** Profile: "SCHEMATIC1-MonteCarlo"  [ E:\Circuits-I\Larson_Lab1-PSpiceFiles\SCHEMATIC1\MonteCarlo.sim ] 


 ****     INITIAL TRANSIENT SOLUTION       TEMPERATURE =   27.000 DEG C

                      MONTE CARLO PASS 97

******************************************************************************



 NODE   VOLTAGE     NODE   VOLTAGE     NODE   VOLTAGE     NODE   VOLTAGE


(   VA)    2.7822  (   VB)     .4215  (N00187)    5.0000 




    VOLTAGE SOURCE CURRENTS
    NAME         CURRENT

    V_V1        -4.367E-04

    TOTAL POWER DISSIPATION   2.18E-03  WATTS


**** 02/05/19 14:43:10 ****** PSpice 17.2.0 (March 2016) ****** ID# 0 ********

 ** Profile: "SCHEMATIC1-MonteCarlo"  [ E:\Circuits-I\Larson_Lab1-PSpiceFiles\SCHEMATIC1\MonteCarlo.sim ] 


 ****     INITIAL TRANSIENT SOLUTION       TEMPERATURE =   27.000 DEG C

                      MONTE CARLO PASS 98

******************************************************************************



 NODE   VOLTAGE     NODE   VOLTAGE     NODE   VOLTAGE     NODE   VOLTAGE


(   VA)    2.5253  (   VB)     .4317  (N00187)    5.0000 




    VOLTAGE SOURCE CURRENTS
    NAME         CURRENT

    V_V1        -4.154E-04

    TOTAL POWER DISSIPATION   2.08E-03  WATTS


**** 02/05/19 14:43:10 ****** PSpice 17.2.0 (March 2016) ****** ID# 0 ********

 ** Profile: "SCHEMATIC1-MonteCarlo"  [ E:\Circuits-I\Larson_Lab1-PSpiceFiles\SCHEMATIC1\MonteCarlo.sim ] 


 ****     INITIAL TRANSIENT SOLUTION       TEMPERATURE =   27.000 DEG C

                      MONTE CARLO PASS 99

******************************************************************************



 NODE   VOLTAGE     NODE   VOLTAGE     NODE   VOLTAGE     NODE   VOLTAGE


(   VA)    2.8542  (   VB)     .3982  (N00187)    5.0000 




    VOLTAGE SOURCE CURRENTS
    NAME         CURRENT

    V_V1        -4.007E-04

    TOTAL POWER DISSIPATION   2.00E-03  WATTS


**** 02/05/19 14:43:10 ****** PSpice 17.2.0 (March 2016) ****** ID# 0 ********

 ** Profile: "SCHEMATIC1-MonteCarlo"  [ E:\Circuits-I\Larson_Lab1-PSpiceFiles\SCHEMATIC1\MonteCarlo.sim ] 


 ****     INITIAL TRANSIENT SOLUTION       TEMPERATURE =   27.000 DEG C

                      MONTE CARLO PASS 100

******************************************************************************



 NODE   VOLTAGE     NODE   VOLTAGE     NODE   VOLTAGE     NODE   VOLTAGE


(   VA)    2.6000  (   VB)     .4354  (N00187)    5.0000 




    VOLTAGE SOURCE CURRENTS
    NAME         CURRENT

    V_V1        -4.290E-04

    TOTAL POWER DISSIPATION   2.14E-03  WATTS


**** 02/05/19 14:43:10 ****** PSpice 17.2.0 (March 2016) ****** ID# 0 ********

 ** Profile: "SCHEMATIC1-MonteCarlo"  [ E:\Circuits-I\Larson_Lab1-PSpiceFiles\SCHEMATIC1\MonteCarlo.sim ] 


 ****     INITIAL TRANSIENT SOLUTION       TEMPERATURE =   27.000 DEG C

                      MONTE CARLO PASS 101

******************************************************************************



 NODE   VOLTAGE     NODE   VOLTAGE     NODE   VOLTAGE     NODE   VOLTAGE


(   VA)    2.6850  (   VB)     .3796  (N00187)    5.0000 




    VOLTAGE SOURCE CURRENTS
    NAME         CURRENT

    V_V1        -3.915E-04

    TOTAL POWER DISSIPATION   1.96E-03  WATTS


**** 02/05/19 14:43:10 ****** PSpice 17.2.0 (March 2016) ****** ID# 0 ********

 ** Profile: "SCHEMATIC1-MonteCarlo"  [ E:\Circuits-I\Larson_Lab1-PSpiceFiles\SCHEMATIC1\MonteCarlo.sim ] 


 ****     INITIAL TRANSIENT SOLUTION       TEMPERATURE =   27.000 DEG C

                      MONTE CARLO PASS 102

******************************************************************************



 NODE   VOLTAGE     NODE   VOLTAGE     NODE   VOLTAGE     NODE   VOLTAGE


(   VA)    2.7998  (   VB)     .4266  (N00187)    5.0000 




    VOLTAGE SOURCE CURRENTS
    NAME         CURRENT

    V_V1        -3.972E-04

    TOTAL POWER DISSIPATION   1.99E-03  WATTS


**** 02/05/19 14:43:10 ****** PSpice 17.2.0 (March 2016) ****** ID# 0 ********

 ** Profile: "SCHEMATIC1-MonteCarlo"  [ E:\Circuits-I\Larson_Lab1-PSpiceFiles\SCHEMATIC1\MonteCarlo.sim ] 


 ****     INITIAL TRANSIENT SOLUTION       TEMPERATURE =   27.000 DEG C

                      MONTE CARLO PASS 103

******************************************************************************



 NODE   VOLTAGE     NODE   VOLTAGE     NODE   VOLTAGE     NODE   VOLTAGE


(   VA)    2.6850  (   VB)     .3509  (N00187)    5.0000 




    VOLTAGE SOURCE CURRENTS
    NAME         CURRENT

    V_V1        -3.867E-04

    TOTAL POWER DISSIPATION   1.93E-03  WATTS


**** 02/05/19 14:43:10 ****** PSpice 17.2.0 (March 2016) ****** ID# 0 ********

 ** Profile: "SCHEMATIC1-MonteCarlo"  [ E:\Circuits-I\Larson_Lab1-PSpiceFiles\SCHEMATIC1\MonteCarlo.sim ] 


 ****     INITIAL TRANSIENT SOLUTION       TEMPERATURE =   27.000 DEG C

                      MONTE CARLO PASS 104

******************************************************************************



 NODE   VOLTAGE     NODE   VOLTAGE     NODE   VOLTAGE     NODE   VOLTAGE


(   VA)    2.8566  (   VB)     .3754  (N00187)    5.0000 




    VOLTAGE SOURCE CURRENTS
    NAME         CURRENT

    V_V1        -4.092E-04

    TOTAL POWER DISSIPATION   2.05E-03  WATTS


**** 02/05/19 14:43:10 ****** PSpice 17.2.0 (March 2016) ****** ID# 0 ********

 ** Profile: "SCHEMATIC1-MonteCarlo"  [ E:\Circuits-I\Larson_Lab1-PSpiceFiles\SCHEMATIC1\MonteCarlo.sim ] 


 ****     INITIAL TRANSIENT SOLUTION       TEMPERATURE =   27.000 DEG C

                      MONTE CARLO PASS 105

******************************************************************************



 NODE   VOLTAGE     NODE   VOLTAGE     NODE   VOLTAGE     NODE   VOLTAGE


(   VA)    2.7647  (   VB)     .3886  (N00187)    5.0000 




    VOLTAGE SOURCE CURRENTS
    NAME         CURRENT

    V_V1        -4.041E-04

    TOTAL POWER DISSIPATION   2.02E-03  WATTS


**** 02/05/19 14:43:10 ****** PSpice 17.2.0 (March 2016) ****** ID# 0 ********

 ** Profile: "SCHEMATIC1-MonteCarlo"  [ E:\Circuits-I\Larson_Lab1-PSpiceFiles\SCHEMATIC1\MonteCarlo.sim ] 


 ****     INITIAL TRANSIENT SOLUTION       TEMPERATURE =   27.000 DEG C

                      MONTE CARLO PASS 106

******************************************************************************



 NODE   VOLTAGE     NODE   VOLTAGE     NODE   VOLTAGE     NODE   VOLTAGE


(   VA)    2.5620  (   VB)     .4317  (N00187)    5.0000 




    VOLTAGE SOURCE CURRENTS
    NAME         CURRENT

    V_V1        -4.019E-04

    TOTAL POWER DISSIPATION   2.01E-03  WATTS


**** 02/05/19 14:43:10 ****** PSpice 17.2.0 (March 2016) ****** ID# 0 ********

 ** Profile: "SCHEMATIC1-MonteCarlo"  [ E:\Circuits-I\Larson_Lab1-PSpiceFiles\SCHEMATIC1\MonteCarlo.sim ] 


 ****     INITIAL TRANSIENT SOLUTION       TEMPERATURE =   27.000 DEG C

                      MONTE CARLO PASS 107

******************************************************************************



 NODE   VOLTAGE     NODE   VOLTAGE     NODE   VOLTAGE     NODE   VOLTAGE


(   VA)    2.7392  (   VB)     .4032  (N00187)    5.0000 




    VOLTAGE SOURCE CURRENTS
    NAME         CURRENT

    V_V1        -3.906E-04

    TOTAL POWER DISSIPATION   1.95E-03  WATTS


**** 02/05/19 14:43:10 ****** PSpice 17.2.0 (March 2016) ****** ID# 0 ********

 ** Profile: "SCHEMATIC1-MonteCarlo"  [ E:\Circuits-I\Larson_Lab1-PSpiceFiles\SCHEMATIC1\MonteCarlo.sim ] 


 ****     INITIAL TRANSIENT SOLUTION       TEMPERATURE =   27.000 DEG C

                      MONTE CARLO PASS 108

******************************************************************************



 NODE   VOLTAGE     NODE   VOLTAGE     NODE   VOLTAGE     NODE   VOLTAGE


(   VA)    2.5780  (   VB)     .3716  (N00187)    5.0000 




    VOLTAGE SOURCE CURRENTS
    NAME         CURRENT

    V_V1        -3.969E-04

    TOTAL POWER DISSIPATION   1.98E-03  WATTS


**** 02/05/19 14:43:10 ****** PSpice 17.2.0 (March 2016) ****** ID# 0 ********

 ** Profile: "SCHEMATIC1-MonteCarlo"  [ E:\Circuits-I\Larson_Lab1-PSpiceFiles\SCHEMATIC1\MonteCarlo.sim ] 


 ****     INITIAL TRANSIENT SOLUTION       TEMPERATURE =   27.000 DEG C

                      MONTE CARLO PASS 109

******************************************************************************



 NODE   VOLTAGE     NODE   VOLTAGE     NODE   VOLTAGE     NODE   VOLTAGE


(   VA)    2.7400  (   VB)     .4065  (N00187)    5.0000 




    VOLTAGE SOURCE CURRENTS
    NAME         CURRENT

    V_V1        -4.450E-04

    TOTAL POWER DISSIPATION   2.23E-03  WATTS


**** 02/05/19 14:43:10 ****** PSpice 17.2.0 (March 2016) ****** ID# 0 ********

 ** Profile: "SCHEMATIC1-MonteCarlo"  [ E:\Circuits-I\Larson_Lab1-PSpiceFiles\SCHEMATIC1\MonteCarlo.sim ] 


 ****     INITIAL TRANSIENT SOLUTION       TEMPERATURE =   27.000 DEG C

                      MONTE CARLO PASS 110

******************************************************************************



 NODE   VOLTAGE     NODE   VOLTAGE     NODE   VOLTAGE     NODE   VOLTAGE


(   VA)    2.6965  (   VB)     .3644  (N00187)    5.0000 




    VOLTAGE SOURCE CURRENTS
    NAME         CURRENT

    V_V1        -3.921E-04

    TOTAL POWER DISSIPATION   1.96E-03  WATTS


**** 02/05/19 14:43:10 ****** PSpice 17.2.0 (March 2016) ****** ID# 0 ********

 ** Profile: "SCHEMATIC1-MonteCarlo"  [ E:\Circuits-I\Larson_Lab1-PSpiceFiles\SCHEMATIC1\MonteCarlo.sim ] 


 ****     INITIAL TRANSIENT SOLUTION       TEMPERATURE =   27.000 DEG C

                      MONTE CARLO PASS 111

******************************************************************************



 NODE   VOLTAGE     NODE   VOLTAGE     NODE   VOLTAGE     NODE   VOLTAGE


(   VA)    2.7201  (   VB)     .3777  (N00187)    5.0000 




    VOLTAGE SOURCE CURRENTS
    NAME         CURRENT

    V_V1        -4.137E-04

    TOTAL POWER DISSIPATION   2.07E-03  WATTS


**** 02/05/19 14:43:10 ****** PSpice 17.2.0 (March 2016) ****** ID# 0 ********

 ** Profile: "SCHEMATIC1-MonteCarlo"  [ E:\Circuits-I\Larson_Lab1-PSpiceFiles\SCHEMATIC1\MonteCarlo.sim ] 


 ****     INITIAL TRANSIENT SOLUTION       TEMPERATURE =   27.000 DEG C

                      MONTE CARLO PASS 112

******************************************************************************



 NODE   VOLTAGE     NODE   VOLTAGE     NODE   VOLTAGE     NODE   VOLTAGE


(   VA)    2.8453  (   VB)     .4524  (N00187)    5.0000 




    VOLTAGE SOURCE CURRENTS
    NAME         CURRENT

    V_V1        -4.268E-04

    TOTAL POWER DISSIPATION   2.13E-03  WATTS


**** 02/05/19 14:43:10 ****** PSpice 17.2.0 (March 2016) ****** ID# 0 ********

 ** Profile: "SCHEMATIC1-MonteCarlo"  [ E:\Circuits-I\Larson_Lab1-PSpiceFiles\SCHEMATIC1\MonteCarlo.sim ] 


 ****     INITIAL TRANSIENT SOLUTION       TEMPERATURE =   27.000 DEG C

                      MONTE CARLO PASS 113

******************************************************************************



 NODE   VOLTAGE     NODE   VOLTAGE     NODE   VOLTAGE     NODE   VOLTAGE


(   VA)    2.8157  (   VB)     .4155  (N00187)    5.0000 




    VOLTAGE SOURCE CURRENTS
    NAME         CURRENT

    V_V1        -4.163E-04

    TOTAL POWER DISSIPATION   2.08E-03  WATTS


**** 02/05/19 14:43:10 ****** PSpice 17.2.0 (March 2016) ****** ID# 0 ********

 ** Profile: "SCHEMATIC1-MonteCarlo"  [ E:\Circuits-I\Larson_Lab1-PSpiceFiles\SCHEMATIC1\MonteCarlo.sim ] 


 ****     INITIAL TRANSIENT SOLUTION       TEMPERATURE =   27.000 DEG C

                      MONTE CARLO PASS 114

******************************************************************************



 NODE   VOLTAGE     NODE   VOLTAGE     NODE   VOLTAGE     NODE   VOLTAGE


(   VA)    2.7004  (   VB)     .3632  (N00187)    5.0000 




    VOLTAGE SOURCE CURRENTS
    NAME         CURRENT

    V_V1        -4.036E-04

    TOTAL POWER DISSIPATION   2.02E-03  WATTS


**** 02/05/19 14:43:10 ****** PSpice 17.2.0 (March 2016) ****** ID# 0 ********

 ** Profile: "SCHEMATIC1-MonteCarlo"  [ E:\Circuits-I\Larson_Lab1-PSpiceFiles\SCHEMATIC1\MonteCarlo.sim ] 


 ****     INITIAL TRANSIENT SOLUTION       TEMPERATURE =   27.000 DEG C

                      MONTE CARLO PASS 115

******************************************************************************



 NODE   VOLTAGE     NODE   VOLTAGE     NODE   VOLTAGE     NODE   VOLTAGE


(   VA)    2.7196  (   VB)     .4381  (N00187)    5.0000 




    VOLTAGE SOURCE CURRENTS
    NAME         CURRENT

    V_V1        -4.362E-04

    TOTAL POWER DISSIPATION   2.18E-03  WATTS


**** 02/05/19 14:43:10 ****** PSpice 17.2.0 (March 2016) ****** ID# 0 ********

 ** Profile: "SCHEMATIC1-MonteCarlo"  [ E:\Circuits-I\Larson_Lab1-PSpiceFiles\SCHEMATIC1\MonteCarlo.sim ] 


 ****     INITIAL TRANSIENT SOLUTION       TEMPERATURE =   27.000 DEG C

                      MONTE CARLO PASS 116

******************************************************************************



 NODE   VOLTAGE     NODE   VOLTAGE     NODE   VOLTAGE     NODE   VOLTAGE


(   VA)    2.6887  (   VB)     .4033  (N00187)    5.0000 




    VOLTAGE SOURCE CURRENTS
    NAME         CURRENT

    V_V1        -4.438E-04

    TOTAL POWER DISSIPATION   2.22E-03  WATTS


**** 02/05/19 14:43:10 ****** PSpice 17.2.0 (March 2016) ****** ID# 0 ********

 ** Profile: "SCHEMATIC1-MonteCarlo"  [ E:\Circuits-I\Larson_Lab1-PSpiceFiles\SCHEMATIC1\MonteCarlo.sim ] 


 ****     INITIAL TRANSIENT SOLUTION       TEMPERATURE =   27.000 DEG C

                      MONTE CARLO PASS 117

******************************************************************************



 NODE   VOLTAGE     NODE   VOLTAGE     NODE   VOLTAGE     NODE   VOLTAGE


(   VA)    2.8080  (   VB)     .3613  (N00187)    5.0000 




    VOLTAGE SOURCE CURRENTS
    NAME         CURRENT

    V_V1        -3.990E-04

    TOTAL POWER DISSIPATION   2.00E-03  WATTS


**** 02/05/19 14:43:10 ****** PSpice 17.2.0 (March 2016) ****** ID# 0 ********

 ** Profile: "SCHEMATIC1-MonteCarlo"  [ E:\Circuits-I\Larson_Lab1-PSpiceFiles\SCHEMATIC1\MonteCarlo.sim ] 


 ****     INITIAL TRANSIENT SOLUTION       TEMPERATURE =   27.000 DEG C

                      MONTE CARLO PASS 118

******************************************************************************



 NODE   VOLTAGE     NODE   VOLTAGE     NODE   VOLTAGE     NODE   VOLTAGE


(   VA)    2.5912  (   VB)     .3589  (N00187)    5.0000 




    VOLTAGE SOURCE CURRENTS
    NAME         CURRENT

    V_V1        -3.957E-04

    TOTAL POWER DISSIPATION   1.98E-03  WATTS


**** 02/05/19 14:43:10 ****** PSpice 17.2.0 (March 2016) ****** ID# 0 ********

 ** Profile: "SCHEMATIC1-MonteCarlo"  [ E:\Circuits-I\Larson_Lab1-PSpiceFiles\SCHEMATIC1\MonteCarlo.sim ] 


 ****     INITIAL TRANSIENT SOLUTION       TEMPERATURE =   27.000 DEG C

                      MONTE CARLO PASS 119

******************************************************************************



 NODE   VOLTAGE     NODE   VOLTAGE     NODE   VOLTAGE     NODE   VOLTAGE


(   VA)    2.6918  (   VB)     .3788  (N00187)    5.0000 




    VOLTAGE SOURCE CURRENTS
    NAME         CURRENT

    V_V1        -3.916E-04

    TOTAL POWER DISSIPATION   1.96E-03  WATTS


**** 02/05/19 14:43:10 ****** PSpice 17.2.0 (March 2016) ****** ID# 0 ********

 ** Profile: "SCHEMATIC1-MonteCarlo"  [ E:\Circuits-I\Larson_Lab1-PSpiceFiles\SCHEMATIC1\MonteCarlo.sim ] 


 ****     INITIAL TRANSIENT SOLUTION       TEMPERATURE =   27.000 DEG C

                      MONTE CARLO PASS 120

******************************************************************************



[...]

Pass  130                .3869 at T =    0     
                        (  94.397% of Nominal)

Pass  800                .3868 at T =    0     
                        (  94.388% of Nominal)

Pass  706                .3868 at T =    0     
                        (  94.381% of Nominal)

Pass  436                .3867 at T =    0     
                        (  94.353% of Nominal)

Pass  449                .3865 at T =    0     
                        (  94.318% of Nominal)

Pass  843                .3864 at T =    0     
                        (  94.287% of Nominal)

Pass  818                .3863 at T =    0     
                        (  94.246% of Nominal)

Pass  789                .3862 at T =    0     
                        (  94.234% of Nominal)

Pass  929                .3861 at T =    0     
                        (  94.219% of Nominal)

Pass  269                .386  at T =    0     
                        (  94.178% of Nominal)

Pass  890                .386  at T =    0     
                        (  94.176% of Nominal)

Pass  639                .386  at T =    0     
                        (  94.173% of Nominal)

Pass  319                .386  at T =    0     
                        (  94.173% of Nominal)

Pass  346                .3859 at T =    0     
                        (  94.154% of Nominal)

Pass  978                .3856 at T =    0     
                        (  94.077% of Nominal)

Pass  318                .3855 at T =    0     
                        (  94.071% of Nominal)

Pass  298                .3855 at T =    0     
                        (  94.051% of Nominal)

Pass  415                .3854 at T =    0     
                        (  94.038% of Nominal)

Pass  606                .3853 at T =    0     
                        (  94.02 % of Nominal)

Pass  683                .3851 at T =    0     
                        (  93.959% of Nominal)

Pass  753                .385  at T =    0     
                        (  93.935% of Nominal)

Pass  307                .3848 at T =    0     
                        (  93.897% of Nominal)

Pass  925                .3844 at T =    0     
                        (  93.789% of Nominal)

Pass   42                .3842 at T =    0     
                        (  93.74 % of Nominal)

Pass  556                .3842 at T =    0     
                        (  93.738% of Nominal)

Pass  718                .3839 at T =    0     
                        (  93.675% of Nominal)

Pass  478                .3838 at T =    0     
                        (  93.657% of Nominal)

Pass  924                .3838 at T =    0     
                        (  93.639% of Nominal)

Pass  559                .3835 at T =    0     
                        (  93.583% of Nominal)

Pass   19                .3835 at T =    0     
                        (  93.575% of Nominal)

Pass  154                .3835 at T =    0     
                        (  93.571% of Nominal)

Pass  532                .3835 at T =    0     
                        (  93.568% of Nominal)

Pass  960                .3834 at T =    0     
                        (  93.541% of Nominal)

Pass  198                .3833 at T =    0     
                        (  93.529% of Nominal)

Pass  561                .3833 at T =    0     
                        (  93.517% of Nominal)

Pass  670                .383  at T =    0     
                        (  93.455% of Nominal)

Pass  438                .3829 at T =    0     
                        (  93.439% of Nominal)

Pass  245                .3828 at T =    0     
                        (  93.393% of Nominal)

Pass  794                .3827 at T =    0     
                        (  93.375% of Nominal)

Pass  883                .3826 at T =    0     
                        (  93.357% of Nominal)

Pass  545                .3826 at T =    0     
                        (  93.348% of Nominal)

Pass  596                .3823 at T =    0     
                        (  93.279% of Nominal)

Pass  299                .3822 at T =    0     
                        (  93.268% of Nominal)

Pass  157                .382  at T =    0     
                        (  93.198% of Nominal)

Pass  479                .3819 at T =    0     
                        (  93.176% of Nominal)

Pass  664                .3818 at T =    0     
                        (  93.151% of Nominal)

Pass  392                .3818 at T =    0     
                        (  93.151% of Nominal)

Pass  872                .3815 at T =    0     
                        (  93.081% of Nominal)

Pass  894                .3813 at T =    0     
                        (  93.039% of Nominal)

Pass  679                .3812 at T =    0     
                        (  93.017% of Nominal)

Pass  201                .3812 at T =    0     
                        (  93.008% of Nominal)

Pass  749                .3809 at T =    0     
                        (  92.948% of Nominal)

Pass  983                .3809 at T =    0     
                        (  92.939% of Nominal)

Pass   28                .3808 at T =    0     
                        (  92.911% of Nominal)

Pass  939                .3807 at T =    0     
                        (  92.898% of Nominal)

Pass  142                .3807 at T =    0     
                        (  92.898% of Nominal)

Pass  624                .3807 at T =    0     
                        (  92.892% of Nominal)

Pass  239                .3806 at T =    0     
                        (  92.875% of Nominal)

Pass  871                .3806 at T =    0     
                        (  92.868% of Nominal)

Pass  466                .3806 at T =    0     
                        (  92.867% of Nominal)

Pass   50                .3806 at T =    0     
                        (  92.856% of Nominal)

Pass  685                .3805 at T =    0     
                        (  92.831% of Nominal)

Pass  817                .3803 at T =    0     
                        (  92.795% of Nominal)

Pass  750                .3802 at T =    0     
                        (  92.779% of Nominal)

Pass  615                .3801 at T =    0     
                        (  92.739% of Nominal)

Pass  947                .3801 at T =    0     
                        (  92.738% of Nominal)

Pass   76                .3801 at T =    0     
                        (  92.737% of Nominal)

Pass  490                .3799 at T =    0     
                        (  92.691% of Nominal)

Pass  785                .3798 at T =    0     
                        (  92.68 % of Nominal)

Pass  739                .3798 at T =    0     
                        (  92.666% of Nominal)

Pass  101                .3796 at T =    0     
                        (  92.631% of Nominal)

Pass  690                .3796 at T =    0     
                        (  92.629% of Nominal)

Pass  833                .3795 at T =    0     
                        (  92.593% of Nominal)

Pass  529                .3794 at T =    0     
                        (  92.567% of Nominal)

Pass  599                .3793 at T =    0     
                        (  92.545% of Nominal)

Pass   64                .3793 at T =    0     
                        (  92.545% of Nominal)

Pass   13                .3793 at T =    0     
                        (  92.542% of Nominal)

Pass  551                .379  at T =    0     
                        (  92.472% of Nominal)

Pass  119                .3788 at T =    0     
                        (  92.427% of Nominal)

Pass  881                .3783 at T =    0     
                        (  92.312% of Nominal)

Pass  463                .3783 at T =    0     
                        (  92.306% of Nominal)

Pass  126                .3782 at T =    0     
                        (  92.29 % of Nominal)

Pass  220                .3782 at T =    0     
                        (  92.282% of Nominal)

Pass  325                .378  at T =    0     
                        (  92.233% of Nominal)

Pass  821                .3779 at T =    0     
                        (  92.218% of Nominal)

Pass   67                .3777 at T =    0     
                        (  92.169% of Nominal)

Pass  111                .3777 at T =    0     
                        (  92.168% of Nominal)

Pass  396                .3775 at T =    0     
                        (  92.12 % of Nominal)

Pass  780                .3775 at T =    0     
                        (  92.103% of Nominal)

Pass  388                .3772 at T =    0     
                        (  92.027% of Nominal)

Pass  996                .3772 at T =    0     
                        (  92.027% of Nominal)

Pass  716                .3771 at T =    0     
                        (  92    % of Nominal)

Pass  886                .377  at T =    0     
                        (  91.987% of Nominal)

Pass  213                .3769 at T =    0     
                        (  91.961% of Nominal)

Pass  662                .3769 at T =    0     
                        (  91.958% of Nominal)

Pass  277                .3768 at T =    0     
                        (  91.943% of Nominal)

Pass  803                .3768 at T =    0     
                        (  91.929% of Nominal)

Pass  373                .3767 at T =    0     
                        (  91.921% of Nominal)

Pass  610                .3766 at T =    0     
                        (  91.901% of Nominal)

Pass  695                .3766 at T =    0     
                        (  91.88 % of Nominal)

Pass  399                .3762 at T =    0     
                        (  91.787% of Nominal)

Pass  205                .3762 at T =    0     
                        (  91.782% of Nominal)

Pass  687                .3762 at T =    0     
                        (  91.781% of Nominal)

Pass  464                .3759 at T =    0     
                        (  91.721% of Nominal)

Pass   69                .3759 at T =    0     
                        (  91.709% of Nominal)

Pass  278                .3756 at T =    0     
                        (  91.637% of Nominal)

Pass  280                .3755 at T =    0     
                        (  91.624% of Nominal)

Pass  740                .3754 at T =    0     
                        (  91.603% of Nominal)

Pass  104                .3754 at T =    0     
                        (  91.596% of Nominal)

Pass  951                .3753 at T =    0     
                        (  91.567% of Nominal)

Pass  210                .3752 at T =    0     
                        (  91.54 % of Nominal)

Pass  445                .375  at T =    0     
                        (  91.494% of Nominal)

Pass  799                .375  at T =    0     
                        (  91.49 % of Nominal)

Pass  437                .3749 at T =    0     
                        (  91.473% of Nominal)

Pass  358                .3747 at T =    0     
                        (  91.419% of Nominal)

Pass  327                .3746 at T =    0     
                        (  91.409% of Nominal)

Pass  271                .3744 at T =    0     
                        (  91.353% of Nominal)

Pass  547                .3744 at T =    0     
                        (  91.348% of Nominal)

Pass  487                .3737 at T =    0     
                        (  91.186% of Nominal)

Pass  272                .3736 at T =    0     
                        (  91.147% of Nominal)

Pass  854                .3734 at T =    0     
                        (  91.114% of Nominal)

Pass  720                .3733 at T =    0     
                        (  91.075% of Nominal)

Pass  361                .3732 at T =    0     
                        (  91.071% of Nominal)

Pass  422                .3732 at T =    0     
                        (  91.051% of Nominal)

Pass  969                .373  at T =    0     
                        (  91.02 % of Nominal)

Pass  430                .373  at T =    0     
                        (  91.018% of Nominal)

Pass  864                .373  at T =    0     
                        (  91.015% of Nominal)

Pass   73                .3725 at T =    0     
                        (  90.897% of Nominal)

Pass  594                .3724 at T =    0     
                        (  90.86 % of Nominal)

Pass  341                .3724 at T =    0     
                        (  90.858% of Nominal)

Pass  238                .3723 at T =    0     
                        (  90.838% of Nominal)

Pass  495                .372  at T =    0     
                        (  90.765% of Nominal)

Pass  810                .3719 at T =    0     
                        (  90.752% of Nominal)

Pass  188                .3719 at T =    0     
                        (  90.734% of Nominal)

Pass  108                .3716 at T =    0     
                        (  90.661% of Nominal)

Pass  987                .3715 at T =    0     
                        (  90.639% of Nominal)

Pass  828                .3714 at T =    0     
                        (  90.62 % of Nominal)

Pass  158                .3711 at T =    0     
                        (  90.557% of Nominal)

Pass  628                .3711 at T =    0     
                        (  90.551% of Nominal)

Pass  848                .371  at T =    0     
                        (  90.534% of Nominal)

Pass  870                .371  at T =    0     
                        (  90.515% of Nominal)

Pass  874                .3704 at T =    0     
                        (  90.382% of Nominal)

Pass  562                .3699 at T =    0     
                        (  90.264% of Nominal)

Pass  147                .3697 at T =    0     
                        (  90.208% of Nominal)

Pass  376                .3694 at T =    0     
                        (  90.124% of Nominal)

Pass  153                .3693 at T =    0     
                        (  90.12 % of Nominal)

Pass  997                .3693 at T =    0     
                        (  90.12 % of Nominal)

Pass  206                .3692 at T =    0     
                        (  90.086% of Nominal)

Pass  128                .3691 at T =    0     
                        (  90.06 % of Nominal)

Pass  171                .369  at T =    0     
                        (  90.04 % of Nominal)

Pass  671                .3688 at T =    0     
                        (  89.984% of Nominal)

Pass  590                .3687 at T =    0     
                        (  89.964% of Nominal)

Pass  588                .3687 at T =    0     
                        (  89.96 % of Nominal)

Pass  644                .3686 at T =    0     
                        (  89.934% of Nominal)

Pass  965                .3685 at T =    0     
                        (  89.92 % of Nominal)

Pass  465                .3685 at T =    0     
                        (  89.914% of Nominal)

Pass  207                .3685 at T =    0     
                        (  89.913% of Nominal)

Pass  377                .3685 at T =    0     
                        (  89.912% of Nominal)

Pass  329                .3683 at T =    0     
                        (  89.858% of Nominal)

Pass  612                .3682 at T =    0     
                        (  89.846% of Nominal)

Pass  554                .3682 at T =    0     
                        (  89.844% of Nominal)

Pass   87                .3675 at T =    0     
                        (  89.682% of Nominal)

Pass  738                .3672 at T =    0     
                        (  89.594% of Nominal)

Pass  337                .3669 at T =    0     
                        (  89.527% of Nominal)

Pass  598                .3668 at T =    0     
                        (  89.511% of Nominal)

Pass    9                .3666 at T =    0     
                        (  89.446% of Nominal)

Pass  964                .3662 at T =    0     
                        (  89.343% of Nominal)

Pass  613                .3661 at T =    0     
                        (  89.322% of Nominal)

Pass  845                .3658 at T =    0     
                        (  89.256% of Nominal)

Pass  604                .3657 at T =    0     
                        (  89.224% of Nominal)

Pass  966                .3655 at T =    0     
                        (  89.186% of Nominal)

Pass  912                .3651 at T =    0     
                        (  89.073% of Nominal)

Pass  110                .3644 at T =    0     
                        (  88.912% of Nominal)

Pass   57                .3642 at T =    0     
                        (  88.854% of Nominal)

Pass  654                .3637 at T =    0     
                        (  88.735% of Nominal)

Pass  230                .3637 at T =    0     
                        (  88.734% of Nominal)

Pass  850                .3633 at T =    0     
                        (  88.653% of Nominal)

Pass  135                .3633 at T =    0     
                        (  88.64 % of Nominal)

Pass  114                .3632 at T =    0     
                        (  88.63 % of Nominal)

Pass  387                .3631 at T =    0     
                        (  88.604% of Nominal)

Pass  616                .363  at T =    0     
                        (  88.568% of Nominal)

Pass   58                .3626 at T =    0     
                        (  88.465% of Nominal)

Pass  139                .362  at T =    0     
                        (  88.326% of Nominal)

Pass  873                .3615 at T =    0     
                        (  88.215% of Nominal)

Pass  117                .3613 at T =    0     
                        (  88.165% of Nominal)

Pass  172                .3611 at T =    0     
                        (  88.11 % of Nominal)

Pass  144                .3607 at T =    0     
                        (  88.007% of Nominal)

Pass  289                .3602 at T =    0     
                        (  87.884% of Nominal)

Pass  161                .3595 at T =    0     
                        (  87.71 % of Nominal)

Pass  118                .3589 at T =    0     
                        (  87.581% of Nominal)

Pass  446                .3586 at T =    0     
                        (  87.501% of Nominal)

Pass  862                .3583 at T =    0     
                        (  87.422% of Nominal)

Pass  178                .3567 at T =    0     
                        (  87.044% of Nominal)

Pass  226                .3561 at T =    0     
                        (  86.882% of Nominal)

Pass  268                .3556 at T =    0     
                        (  86.765% of Nominal)

Pass   48                .355  at T =    0     
                        (  86.628% of Nominal)

Pass  641                .3545 at T =    0     
                        (  86.508% of Nominal)

Pass  481                .3537 at T =    0     
                        (  86.304% of Nominal)

Pass  835                .3535 at T =    0     
                        (  86.265% of Nominal)

Pass  807                .3522 at T =    0     
                        (  85.942% of Nominal)

Pass  394                .3518 at T =    0     
                        (  85.833% of Nominal)

Pass  103                .3509 at T =    0     
                        (  85.608% of Nominal)

Pass  645                .3504 at T =    0     
                        (  85.494% of Nominal)

Pass  349                .3483 at T =    0     
                        (  84.992% of Nominal)



          JOB CONCLUDED

**** 02/05/19 14:43:10 ****** PSpice 17.2.0 (March 2016) ****** ID# 0 ********

 ** Profile: "SCHEMATIC1-MonteCarlo"  [ E:\Circuits-I\Larson_Lab1-PSpiceFiles\SCHEMATIC1\MonteCarlo.sim ] 


 ****     JOB STATISTICS SUMMARY


******************************************************************************



  Total job time (using Solver 1)   =      138.81
